Elermorevale/subs/HP00007159GTX00000001.glm



object transformer {
      name HP00007159GTX00000001_TX;
      phases ABC;
      from HP00007159GTX00000001;
      to HP00007159GTX00000001_LV;
      configuration HP00007159GTX00000001_config;
      };



object meter {
      name HP00007159GTX00000001_LV;
      phases ABCN;
      nominal_voltage  240;
      };


object switch {
      name HP00007159GTX00000001_LV-HP00007159LDI00007159_T1;
      phases ABCN;
      from HP00007159GTX00000001_LV;
      to HP00007159LDI00007159_T1;
      status CLOSED;
      };



object meter {
      name HP00007159LDI00007159_T1;
      phases ABCN;
      nominal_voltage  240;
      };


object fuse {
      name HP00007159LDI00007159;
      phases ABCN;
      from HP00007159LDI00007159_T1;
      to HP00007159LDI00007159_T2;
      phase_A_status GOOD;
      phase_B_status GOOD;
      phase_C_status GOOD;
      current_limit  10000 A;
      mean_replacement_time 3600;
      };



object meter {
      name HP00007159LDI00007159_T2;
      phases ABCN;
      nominal_voltage  240;
      };


object switch {
      name HP00007159LDI00007159_T2-FDR_7159_LV_NODE_011;
      phases ABCN;
      from HP00007159LDI00007159_T2;
      to FDR_7159_LV_NODE_011;
      status CLOSED;
      };



object meter {
      name FDR_7159_LV_NODE_011;
      phases ABCN;
      nominal_voltage  240;
      };


object overhead_line {
      name FDR_7159_LV_NODE_011-FDR_7159_LV_NODE_012;
      phases ABCN;
      from FDR_7159_LV_NODE_011;
      to FDR_7159_LV_NODE_012;
      length 39.6 m;
      configuration conf_OHLine_57003;
      };



object meter {
      name FDR_7159_LV_NODE_012;
      phases ABCN;
      nominal_voltage  240;
      };


object overhead_line {
      name FDR_7159_LV_NODE_012-FDR_7159_LV_NODE_013_2;
      phases ABCN;
      from FDR_7159_LV_NODE_012;
      to FDR_7159_LV_NODE_013_2;
      length 30.2 m;
      configuration conf_OHLine_57002;
      };



object meter {
      name FDR_7159_LV_NODE_013_2;
      phases ABCN;
      nominal_voltage  240;
      };


object overhead_line {
      name FDR_7159_LV_NODE_013_2-FDR_7159_LV_SP_5333884;
      phases AN;
      from FDR_7159_LV_NODE_013_2;
      to FDR_7159_LV_SP_5333884;
      length 23.6 m;
      configuration conf_OHLine_600;
      };



object meter {
      name FDR_7159_LV_SP_5333884;
      phases AN;
      nominal_voltage  240;
      };


object load {
      name LOAD_8633775;
      parent FDR_7159_LV_SP_5333884;
      phases AN;
      nominal_voltage  240;
      base_power_A Load_7159.result;
      power_fraction_A 1;
      current_fraction_A 0;
      impedance_fraction_A 0;
      power_pf_A L_pf_Head80784.output;
      current_pf_A 1;
      impedance_pf_A 1;
      
      // Customer Trial Appended Data //
      ausgrid_sa1 11103123336;
      ausgrid_annual_consumption 5422.7113402;
      ausgrid_annual_consumption_with_control_load 5422.7113402;
      ausgrid_simple_cell 26;
      ausgrid_elec_band_residential 2;
      ausgrid_elec_band_business 0;
      ausgrid_unit 0;
      ausgrid_income_band 1;
      ausgrid_gas_band 1;
      ausgrid_climate_zone 5;
      ausgrid_controlled_load 0;
      ausgrid_generation 0;
      };


object overhead_line {
      name FDR_7159_LV_NODE_013_2-FDR_7159_LV_NODE_014_4;
      phases ABCN;
      from FDR_7159_LV_NODE_013_2;
      to FDR_7159_LV_NODE_014_4;
      length 31.5 m;
      configuration conf_OHLine_51060;
      };



object meter {
      name FDR_7159_LV_NODE_014_4;
      phases ABCN;
      nominal_voltage  240;
      };


object overhead_line {
      name FDR_7159_LV_NODE_014_4-FDR_7159_LV_SP_5333885;
      phases AN;
      from FDR_7159_LV_NODE_014_4;
      to FDR_7159_LV_SP_5333885;
      length 23.5 m;
      configuration conf_OHLine_600;
      };



object meter {
      name FDR_7159_LV_SP_5333885;
      phases AN;
      nominal_voltage  240;
      };


object load {
      name LOAD_8633975;
      parent FDR_7159_LV_SP_5333885;
      phases AN;
      nominal_voltage  240;
      base_power_A Load_7159.result;
      power_fraction_A 1;
      current_fraction_A 0;
      impedance_fraction_A 0;
      power_pf_A L_pf_Head80784.output;
      current_pf_A 1;
      impedance_pf_A 1;
      
      // Customer Trial Appended Data //
      ausgrid_sa1 11103123336;
      ausgrid_annual_consumption 4378.1842268;
      ausgrid_annual_consumption_with_control_load 7184.3357732;
      ausgrid_simple_cell 25;
      ausgrid_elec_band_residential 1;
      ausgrid_elec_band_business 0;
      ausgrid_unit 0;
      ausgrid_income_band 1;
      ausgrid_gas_band 1;
      ausgrid_climate_zone 5;
      ausgrid_controlled_load 1;
      ausgrid_generation 0;
      };


object overhead_line {
      name FDR_7159_LV_NODE_014_4-FDR_7159_LV_SP_5333883;
      phases BN;
      from FDR_7159_LV_NODE_014_4;
      to FDR_7159_LV_SP_5333883;
      length 14.7 m;
      configuration conf_OHLine_600;
      };



object meter {
      name FDR_7159_LV_SP_5333883;
      phases BN;
      nominal_voltage  240;
      };


object load {
      name LOAD_8633727;
      parent FDR_7159_LV_SP_5333883;
      phases BN;
      nominal_voltage  240;
      base_power_B Load_7159.result;
      power_fraction_B 1;
      current_fraction_B 0;
      impedance_fraction_B 0;
      power_pf_B L_pf_Head80784.output;
      current_pf_B 1;
      impedance_pf_B 1;
      
      // Customer Trial Appended Data //
      ausgrid_sa1 11103123336;
      ausgrid_annual_consumption 3129.5164835;
      ausgrid_annual_consumption_with_control_load 3129.5164835;
      ausgrid_simple_cell 25;
      ausgrid_elec_band_residential 1;
      ausgrid_elec_band_business 0;
      ausgrid_unit 0;
      ausgrid_income_band 1;
      ausgrid_gas_band 1;
      ausgrid_climate_zone 5;
      ausgrid_controlled_load 0;
      ausgrid_generation 0;
      };


object switch {
      name FDR_7159_LV_NODE_014_4-FDR_7159_LV_SW_015_T1;
      phases ABCN;
      from FDR_7159_LV_NODE_014_4;
      to FDR_7159_LV_SW_015_T1;
      status CLOSED;
      };



object meter {
      name FDR_7159_LV_SW_015_T1;
      phases ABCN;
      nominal_voltage  240;
      };


object switch {
      name FDR_7159_LV_SW_015;
      phases ABCN;
      from FDR_7159_LV_SW_015_T1;
      to FDR_7159_LV_SW_015_T2;
      status CLOSED;
      };



object meter {
      name FDR_7159_LV_SW_015_T2;
      phases ABCN;
      nominal_voltage  240;
      };


object overhead_line {
      name FDR_7159_LV_NODE_014_4-FDR_7159_LV_SP_5213069;
      phases AN;
      from FDR_7159_LV_NODE_014_4;
      to FDR_7159_LV_SP_5213069;
      length 15.2 m;
      configuration conf_OHLine_600;
      };



object meter {
      name FDR_7159_LV_SP_5213069;
      phases AN;
      nominal_voltage  240;
      };


object load {
      name LOAD_8633963;
      parent FDR_7159_LV_SP_5213069;
      phases AN;
      nominal_voltage  240;
      base_power_A Load_7159.result;
      power_fraction_A 1;
      current_fraction_A 0;
      impedance_fraction_A 0;
      power_pf_A L_pf_Head80784.output;
      current_pf_A 1;
      impedance_pf_A 1;
      
      // Customer Trial Appended Data //
      ausgrid_sa1 11103123336;
      ausgrid_annual_consumption 4568.010989;
      ausgrid_annual_consumption_with_control_load 4568.010989;
      ausgrid_simple_cell 25;
      ausgrid_elec_band_residential 1;
      ausgrid_elec_band_business 0;
      ausgrid_unit 0;
      ausgrid_income_band 1;
      ausgrid_gas_band 1;
      ausgrid_climate_zone 5;
      ausgrid_controlled_load 0;
      ausgrid_generation 0;
      };


object overhead_line {
      name FDR_7159_LV_NODE_014_4-FDR_7159_LV_SP_5213073;
      phases CN;
      from FDR_7159_LV_NODE_014_4;
      to FDR_7159_LV_SP_5213073;
      length 27.5 m;
      configuration conf_OHLine_600;
      };



object meter {
      name FDR_7159_LV_SP_5213073;
      phases CN;
      nominal_voltage  240;
      };


object load {
      name LOAD_8633749;
      parent FDR_7159_LV_SP_5213073;
      phases CN;
      nominal_voltage  240;
      base_power_C Load_7159.result;
      power_fraction_C 1;
      current_fraction_C 0;
      impedance_fraction_C 0;
      power_pf_C L_pf_Head80784.output;
      current_pf_C 1;
      impedance_pf_C 1;
      
      // Customer Trial Appended Data //
      ausgrid_sa1 11103123336;
      ausgrid_annual_consumption 4749.8461538;
      ausgrid_annual_consumption_with_control_load 4749.8461538;
      ausgrid_simple_cell 25;
      ausgrid_elec_band_residential 1;
      ausgrid_elec_band_business 0;
      ausgrid_unit 0;
      ausgrid_income_band 1;
      ausgrid_gas_band 1;
      ausgrid_climate_zone 5;
      ausgrid_controlled_load 0;
      ausgrid_generation 0;
      };


object overhead_line {
      name FDR_7159_LV_NODE_014_4-FDR_7159_LV_NODE_015;
      phases ABCN;
      from FDR_7159_LV_NODE_014_4;
      to FDR_7159_LV_NODE_015;
      length 53.4 m;
      configuration conf_OHLine_51060;
      };



object meter {
      name FDR_7159_LV_NODE_015;
      phases ABCN;
      nominal_voltage  240;
      };


object overhead_line {
      name FDR_7159_LV_NODE_015-FDR_7159_LV_SP_5333887;
      phases AN;
      from FDR_7159_LV_NODE_015;
      to FDR_7159_LV_SP_5333887;
      length 24.2 m;
      configuration conf_OHLine_600;
      };



object meter {
      name FDR_7159_LV_SP_5333887;
      phases AN;
      nominal_voltage  240;
      };


object load {
      name LOAD_8633851;
      parent FDR_7159_LV_SP_5333887;
      phases AN;
      nominal_voltage  240;
      base_power_A Load_7159.result;
      power_fraction_A 1;
      current_fraction_A 0;
      impedance_fraction_A 0;
      power_pf_A L_pf_Head80784.output;
      current_pf_A 1;
      impedance_pf_A 1;
      
      // Customer Trial Appended Data //
      ausgrid_sa1 11103123336;
      ausgrid_annual_consumption 3652.5857143;
      ausgrid_annual_consumption_with_control_load 3652.5857143;
      ausgrid_simple_cell 25;
      ausgrid_elec_band_residential 1;
      ausgrid_elec_band_business 0;
      ausgrid_unit 0;
      ausgrid_income_band 1;
      ausgrid_gas_band 1;
      ausgrid_climate_zone 5;
      ausgrid_controlled_load 0;
      ausgrid_generation 0;
      };


object overhead_line {
      name FDR_7159_LV_NODE_015-FDR_7159_LV_SP_5213070;
      phases BN;
      from FDR_7159_LV_NODE_015;
      to FDR_7159_LV_SP_5213070;
      length 32.5 m;
      configuration conf_OHLine_600;
      };



object meter {
      name FDR_7159_LV_SP_5213070;
      phases BN;
      nominal_voltage  240;
      };


object load {
      name LOAD_8633929;
      parent FDR_7159_LV_SP_5213070;
      phases BN;
      nominal_voltage  240;
      base_power_B Load_7159.result;
      power_fraction_B 1;
      current_fraction_B 0;
      impedance_fraction_B 0;
      power_pf_B L_pf_Head80784.output;
      current_pf_B 1;
      impedance_pf_B 1;
      
      // Customer Trial Appended Data //
      ausgrid_sa1 11103123336;
      ausgrid_annual_consumption 1508.7362637;
      ausgrid_annual_consumption_with_control_load 2485.3516484;
      ausgrid_simple_cell 25;
      ausgrid_elec_band_residential 1;
      ausgrid_elec_band_business 0;
      ausgrid_unit 0;
      ausgrid_income_band 1;
      ausgrid_gas_band 1;
      ausgrid_climate_zone 5;
      ausgrid_controlled_load 1;
      ausgrid_generation 0;
      };


object overhead_line {
      name FDR_7159_LV_NODE_015-FDR_7159_LV_NODE_016_3;
      phases ABCN;
      from FDR_7159_LV_NODE_015;
      to FDR_7159_LV_NODE_016_3;
      length 36.1 m;
      configuration conf_OHLine_2312;
      };



object meter {
      name FDR_7159_LV_NODE_016_3;
      phases ABCN;
      nominal_voltage  240;
      };


object underground_line {
      name FDR_7159_LV_NODE_016_3-FDR_7159_LV_SP_5333886;
      phases BN;
      from FDR_7159_LV_NODE_016_3;
      to FDR_7159_LV_SP_5333886;
      length 9.2 m;
      configuration conf_UGLine_2259;
      };



object meter {
      name FDR_7159_LV_SP_5333886;
      phases BN;
      nominal_voltage  240;
      };


object load {
      name LOAD_8633941;
      parent FDR_7159_LV_SP_5333886;
      phases BN;
      nominal_voltage  240;
      base_power_B Load_7159.result;
      power_fraction_B 1;
      current_fraction_B 0;
      impedance_fraction_B 0;
      power_pf_B L_pf_Head80784.output;
      current_pf_B 1;
      impedance_pf_B 1;
      
      // Customer Trial Appended Data //
      ausgrid_sa1 11103123336;
      ausgrid_annual_consumption 11656.649485;
      ausgrid_annual_consumption_with_control_load 12385.021959;
      ausgrid_simple_cell 27;
      ausgrid_elec_band_residential 3;
      ausgrid_elec_band_business 0;
      ausgrid_unit 0;
      ausgrid_income_band 1;
      ausgrid_gas_band 1;
      ausgrid_climate_zone 5;
      ausgrid_controlled_load 1;
      ausgrid_generation 0;
      };


object overhead_line {
      name FDR_7159_LV_NODE_015-FDR_7159_LV_NODE_016_2;
      phases ABCN;
      from FDR_7159_LV_NODE_015;
      to FDR_7159_LV_NODE_016_2;
      length 46.2 m;
      configuration conf_OHLine_51060;
      };



object meter {
      name FDR_7159_LV_NODE_016_2;
      phases ABCN;
      nominal_voltage  240;
      };


object overhead_line {
      name FDR_7159_LV_NODE_016_2-FDR_7159_LV_SP_5213071;
      phases CN;
      from FDR_7159_LV_NODE_016_2;
      to FDR_7159_LV_SP_5213071;
      length 47.8 m;
      configuration conf_OHLine_600;
      };



object meter {
      name FDR_7159_LV_SP_5213071;
      phases CN;
      nominal_voltage  240;
      };


object load {
      name LOAD_8633873;
      parent FDR_7159_LV_SP_5213071;
      phases CN;
      nominal_voltage  240;
      base_power_C Load_7159.result;
      power_fraction_C 1;
      current_fraction_C 0;
      impedance_fraction_C 0;
      power_pf_C L_pf_Head80784.output;
      current_pf_C 1;
      impedance_pf_C 1;
      
      // Customer Trial Appended Data //
      ausgrid_sa1 11103123336;
      ausgrid_annual_consumption 6447.9776289;
      ausgrid_annual_consumption_with_control_load 11050.441546;
      ausgrid_simple_cell 26;
      ausgrid_elec_band_residential 2;
      ausgrid_elec_band_business 0;
      ausgrid_unit 0;
      ausgrid_income_band 1;
      ausgrid_gas_band 1;
      ausgrid_climate_zone 5;
      ausgrid_controlled_load 1;
      ausgrid_generation 1;
      };


object inverter {
      name DG_8633873;
      parent FDR_7159_LV_SP_5213071;
      phases CN;
      generator_mode CONSTANT_PF;
      generator_status ONLINE;
      inverter_type PWM;
      power_factor 0.9;
      rated_power 10000;
      inverter_efficiency 0.95;
      };


object solar {
      name SOLAR_8633873;
      parent DG_8633873;
      phases CN;
      generator_status ONLINE;
      weather ElermoreClimate;
      panel_type SINGLE_CRYSTAL_SILICON;
      generator_mode CONSTANT_PF;
      area 9.394 m^2;
      tilt_angle 30;
      efficiency 0.14;
      orientation_azimuth 30;
      orientation  FIXED_AXIS;
      SOLAR_TILT_MODEL  SOLPOS;
      SOLAR_POWER_MODEL  DEFAULT;
      };


object overhead_line {
      name FDR_7159_LV_NODE_016_2-FDR_7159_LV_NODE_017_4;
      phases ABCN;
      from FDR_7159_LV_NODE_016_2;
      to FDR_7159_LV_NODE_017_4;
      length 21.0 m;
      configuration conf_OHLine_51060;
      };



object meter {
      name FDR_7159_LV_NODE_017_4;
      phases ABCN;
      nominal_voltage  240;
      };


object overhead_line {
      name FDR_7159_LV_NODE_017_4-FDR_7159_LV_NODE_018_2;
      phases ABCN;
      from FDR_7159_LV_NODE_017_4;
      to FDR_7159_LV_NODE_018_2;
      length 41.0 m;
      configuration conf_OHLine_51101;
      };



object meter {
      name FDR_7159_LV_NODE_018_2;
      phases ABCN;
      nominal_voltage  240;
      };


object overhead_line {
      name FDR_7159_LV_NODE_018_2-FDR_7159_LV_SP_5333880;
      phases BN;
      from FDR_7159_LV_NODE_018_2;
      to FDR_7159_LV_SP_5333880;
      length 32.5 m;
      configuration conf_OHLine_600;
      };



object meter {
      name FDR_7159_LV_SP_5333880;
      phases BN;
      nominal_voltage  240;
      };


object load {
      name LOAD_8633853;
      parent FDR_7159_LV_SP_5333880;
      phases BN;
      nominal_voltage  240;
      base_power_B Load_7159.result;
      power_fraction_B 1;
      current_fraction_B 0;
      impedance_fraction_B 0;
      power_pf_B L_pf_Head80784.output;
      current_pf_B 1;
      impedance_pf_B 1;
      
      // Customer Trial Appended Data //
      ausgrid_sa1 11103123336;
      ausgrid_annual_consumption 822.23076923;
      ausgrid_annual_consumption_with_control_load 2066.4615385;
      ausgrid_simple_cell 25;
      ausgrid_elec_band_residential 1;
      ausgrid_elec_band_business 0;
      ausgrid_unit 0;
      ausgrid_income_band 1;
      ausgrid_gas_band 1;
      ausgrid_climate_zone 5;
      ausgrid_controlled_load 1;
      ausgrid_generation 0;
      };


object overhead_line {
      name FDR_7159_LV_NODE_018_2-FDR_7159_LV_NODE_019_1;
      phases ABCN;
      from FDR_7159_LV_NODE_018_2;
      to FDR_7159_LV_NODE_019_1;
      length 46.3 m;
      configuration conf_OHLine_51101;
      };



object meter {
      name FDR_7159_LV_NODE_019_1;
      phases ABCN;
      nominal_voltage  240;
      };


object overhead_line {
      name FDR_7159_LV_NODE_019_1-FDR_7159_LV_SP_5213059;
      phases CN;
      from FDR_7159_LV_NODE_019_1;
      to FDR_7159_LV_SP_5213059;
      length 15.1 m;
      configuration conf_OHLine_2312;
      };



object meter {
      name FDR_7159_LV_SP_5213059;
      phases CN;
      nominal_voltage  240;
      };


object load {
      name LOAD_8633875;
      parent FDR_7159_LV_SP_5213059;
      phases CN;
      nominal_voltage  240;
      base_power_C Load_7159.result;
      power_fraction_C 1;
      current_fraction_C 0;
      impedance_fraction_C 0;
      power_pf_C L_pf_Head80784.output;
      current_pf_C 1;
      impedance_pf_C 1;
      
      // Customer Trial Appended Data //
      ausgrid_sa1 11103123336;
      ausgrid_annual_consumption 842.88659794;
      ausgrid_annual_consumption_with_control_load 2878.3658763;
      ausgrid_simple_cell 25;
      ausgrid_elec_band_residential 1;
      ausgrid_elec_band_business 0;
      ausgrid_unit 0;
      ausgrid_income_band 1;
      ausgrid_gas_band 1;
      ausgrid_climate_zone 5;
      ausgrid_controlled_load 1;
      ausgrid_generation 0;
      };


object overhead_line {
      name FDR_7159_LV_NODE_019_1-FDR_7159_LV_SP_5333869;
      phases BN;
      from FDR_7159_LV_NODE_019_1;
      to FDR_7159_LV_SP_5333869;
      length 26.5 m;
      configuration conf_OHLine_2312;
      };



object meter {
      name FDR_7159_LV_SP_5333869;
      phases BN;
      nominal_voltage  240;
      };


object load {
      name LOAD_8633861;
      parent FDR_7159_LV_SP_5333869;
      phases BN;
      nominal_voltage  240;
      base_power_B Load_7159.result;
      power_fraction_B 1;
      current_fraction_B 0;
      impedance_fraction_B 0;
      power_pf_B L_pf_Head80784.output;
      current_pf_B 1;
      impedance_pf_B 1;
      
      // Customer Trial Appended Data //
      ausgrid_sa1 11103123336;
      ausgrid_annual_consumption 6653.6846304;
      ausgrid_annual_consumption_with_control_load 6653.6846304;
      ausgrid_simple_cell 26;
      ausgrid_elec_band_residential 2;
      ausgrid_elec_band_business 0;
      ausgrid_unit 0;
      ausgrid_income_band 1;
      ausgrid_gas_band 1;
      ausgrid_climate_zone 5;
      ausgrid_controlled_load 0;
      ausgrid_generation 0;
      };


object overhead_line {
      name FDR_7159_LV_NODE_019_1-FDR_7159_LV_NODE_020_2;
      phases ABCN;
      from FDR_7159_LV_NODE_019_1;
      to FDR_7159_LV_NODE_020_2;
      length 55.7 m;
      configuration conf_OHLine_51101;
      };



object meter {
      name FDR_7159_LV_NODE_020_2;
      phases ABCN;
      nominal_voltage  240;
      };


object overhead_line {
      name FDR_7159_LV_NODE_020_2-UNK_LV_SW_021_T1;
      phases ABCN;
      from FDR_7159_LV_NODE_020_2;
      to UNK_LV_SW_021_T1;
      length 1.8 m;
      configuration conf_OHLine_51027;
      };



object meter {
      name UNK_LV_SW_021_T1;
      phases ABCN;
      nominal_voltage  240;
      };


object switch {
      name UNK_LV_SW_021;
      phases ABCN;
      from UNK_LV_SW_021_T1;
      to UNK_LV_SW_021_T2;
      status CLOSED;
      };



object meter {
      name UNK_LV_SW_021_T2;
      phases ABCN;
      nominal_voltage  240;
      };


object overhead_line {
      name FDR_7159_LV_NODE_019_1-FDR_7159_LV_SP_5213060;
      phases BN;
      from FDR_7159_LV_NODE_019_1;
      to FDR_7159_LV_SP_5213060;
      length 14.7 m;
      configuration conf_OHLine_2312;
      };



object meter {
      name FDR_7159_LV_SP_5213060;
      phases BN;
      nominal_voltage  240;
      };


object load {
      name LOAD_8633877;
      parent FDR_7159_LV_SP_5213060;
      phases BN;
      nominal_voltage  240;
      base_power_B Load_7159.result;
      power_fraction_B 1;
      current_fraction_B 0;
      impedance_fraction_B 0;
      power_pf_B L_pf_Head80784.output;
      current_pf_B 1;
      impedance_pf_B 1;
      
      // Customer Trial Appended Data //
      ausgrid_sa1 11103123336;
      ausgrid_annual_consumption 2744.1098901;
      ausgrid_annual_consumption_with_control_load 5021.2087912;
      ausgrid_simple_cell 25;
      ausgrid_elec_band_residential 1;
      ausgrid_elec_band_business 0;
      ausgrid_unit 0;
      ausgrid_income_band 1;
      ausgrid_gas_band 1;
      ausgrid_climate_zone 5;
      ausgrid_controlled_load 1;
      ausgrid_generation 0;
      };


object overhead_line {
      name FDR_7159_LV_NODE_019_1-FDR_7159_LV_SP_5333878;
      phases AN;
      from FDR_7159_LV_NODE_019_1;
      to FDR_7159_LV_SP_5333878;
      length 26.3 m;
      configuration conf_OHLine_2312;
      };



object meter {
      name FDR_7159_LV_SP_5333878;
      phases AN;
      nominal_voltage  240;
      };


object load {
      name LOAD_8633829;
      parent FDR_7159_LV_SP_5333878;
      phases AN;
      nominal_voltage  240;
      base_power_A Load_7159.result;
      power_fraction_A 1;
      current_fraction_A 0;
      impedance_fraction_A 0;
      power_pf_A L_pf_Head80784.output;
      current_pf_A 1;
      impedance_pf_A 1;
      
      // Customer Trial Appended Data //
      ausgrid_sa1 11103123336;
      ausgrid_annual_consumption 3998.3296703;
      ausgrid_annual_consumption_with_control_load 3998.3296703;
      ausgrid_simple_cell 25;
      ausgrid_elec_band_residential 1;
      ausgrid_elec_band_business 0;
      ausgrid_unit 0;
      ausgrid_income_band 1;
      ausgrid_gas_band 1;
      ausgrid_climate_zone 5;
      ausgrid_controlled_load 0;
      ausgrid_generation 0;
      };


object overhead_line {
      name FDR_7159_LV_NODE_019_1-FDR_7159_LV_SP_5333879;
      phases BN;
      from FDR_7159_LV_NODE_019_1;
      to FDR_7159_LV_SP_5333879;
      length 24.3 m;
      configuration conf_OHLine_2312;
      };



object meter {
      name FDR_7159_LV_SP_5333879;
      phases BN;
      nominal_voltage  240;
      };


object load {
      name LOAD_8633833;
      parent FDR_7159_LV_SP_5333879;
      phases BN;
      nominal_voltage  240;
      base_power_B Load_7159.result;
      power_fraction_B 1;
      current_fraction_B 0;
      impedance_fraction_B 0;
      power_pf_B L_pf_Head80784.output;
      current_pf_B 1;
      impedance_pf_B 1;
      
      // Customer Trial Appended Data //
      ausgrid_sa1 11103123336;
      ausgrid_annual_consumption 6713.4690652;
      ausgrid_annual_consumption_with_control_load 8307.1174168;
      ausgrid_simple_cell 26;
      ausgrid_elec_band_residential 2;
      ausgrid_elec_band_business 0;
      ausgrid_unit 0;
      ausgrid_income_band 1;
      ausgrid_gas_band 1;
      ausgrid_climate_zone 5;
      ausgrid_controlled_load 1;
      ausgrid_generation 0;
      };


object overhead_line {
      name FDR_7159_LV_NODE_018_2-FDR_7159_LV_SP_5333870;
      phases AN;
      from FDR_7159_LV_NODE_018_2;
      to FDR_7159_LV_SP_5333870;
      length 26.6 m;
      configuration conf_OHLine_600;
      };



object meter {
      name FDR_7159_LV_SP_5333870;
      phases AN;
      nominal_voltage  240;
      };


object load {
      name LOAD_8633879;
      parent FDR_7159_LV_SP_5333870;
      phases AN;
      nominal_voltage  240;
      base_power_A Load_7159.result;
      power_fraction_A 1;
      current_fraction_A 0;
      impedance_fraction_A 0;
      power_pf_A L_pf_Head80784.output;
      current_pf_A 1;
      impedance_pf_A 1;
      
      // Customer Trial Appended Data //
      ausgrid_sa1 11103123336;
      ausgrid_annual_consumption 4354.021978;
      ausgrid_annual_consumption_with_control_load 6574.021978;
      ausgrid_simple_cell 25;
      ausgrid_elec_band_residential 1;
      ausgrid_elec_band_business 0;
      ausgrid_unit 0;
      ausgrid_income_band 1;
      ausgrid_gas_band 1;
      ausgrid_climate_zone 5;
      ausgrid_controlled_load 1;
      ausgrid_generation 0;
      };


object overhead_line {
      name FDR_7159_LV_NODE_018_2-FDR_7159_LV_SP_5213061;
      phases CN;
      from FDR_7159_LV_NODE_018_2;
      to FDR_7159_LV_SP_5213061;
      length 14.9 m;
      configuration conf_OHLine_600;
      };



object meter {
      name FDR_7159_LV_SP_5213061;
      phases CN;
      nominal_voltage  240;
      };


object load {
      name LOAD_8633881;
      parent FDR_7159_LV_SP_5213061;
      phases CN;
      nominal_voltage  240;
      base_power_C Load_7159.result;
      power_fraction_C 1;
      current_fraction_C 0;
      impedance_fraction_C 0;
      power_pf_C L_pf_Head80784.output;
      current_pf_C 1;
      impedance_pf_C 1;
      
      // Customer Trial Appended Data //
      ausgrid_sa1 11103123336;
      ausgrid_annual_consumption 3468.2904124;
      ausgrid_annual_consumption_with_control_load 7019.5707216;
      ausgrid_simple_cell 25;
      ausgrid_elec_band_residential 1;
      ausgrid_elec_band_business 0;
      ausgrid_unit 0;
      ausgrid_income_band 1;
      ausgrid_gas_band 1;
      ausgrid_climate_zone 5;
      ausgrid_controlled_load 1;
      ausgrid_generation 1;
      };


object inverter {
      name DG_8633881;
      parent FDR_7159_LV_SP_5213061;
      phases CN;
      generator_mode CONSTANT_PF;
      generator_status ONLINE;
      inverter_type PWM;
      power_factor 0.9;
      rated_power 10000;
      inverter_efficiency 0.95;
      };


object solar {
      name SOLAR_8633881;
      parent DG_8633881;
      phases CN;
      generator_status ONLINE;
      weather ElermoreClimate;
      panel_type SINGLE_CRYSTAL_SILICON;
      generator_mode CONSTANT_PF;
      area 9.15 m^2;
      tilt_angle 23;
      efficiency 0.14;
      orientation_azimuth 330;
      orientation  FIXED_AXIS;
      SOLAR_TILT_MODEL  SOLPOS;
      SOLAR_POWER_MODEL  DEFAULT;
      };


object overhead_line {
      name FDR_7159_LV_NODE_017_4-FDR_7159_LV_SP_5333872;
      phases CN;
      from FDR_7159_LV_NODE_017_4;
      to FDR_7159_LV_SP_5333872;
      length 21.7 m;
      configuration conf_OHLine_600;
      };



object meter {
      name FDR_7159_LV_SP_5333872;
      phases CN;
      nominal_voltage  240;
      };


object load {
      name LOAD_8633899;
      parent FDR_7159_LV_SP_5333872;
      phases CN;
      nominal_voltage  240;
      base_power_C Load_7159.result;
      power_fraction_C 1;
      current_fraction_C 0;
      impedance_fraction_C 0;
      power_pf_C L_pf_Head80784.output;
      current_pf_C 1;
      impedance_pf_C 1;
      
      // Customer Trial Appended Data //
      ausgrid_sa1 11103123336;
      ausgrid_annual_consumption 2625.4725275;
      ausgrid_annual_consumption_with_control_load 2625.4725275;
      ausgrid_simple_cell 25;
      ausgrid_elec_band_residential 1;
      ausgrid_elec_band_business 0;
      ausgrid_unit 0;
      ausgrid_income_band 1;
      ausgrid_gas_band 1;
      ausgrid_climate_zone 5;
      ausgrid_controlled_load 0;
      ausgrid_generation 0;
      };


object overhead_line {
      name FDR_7159_LV_NODE_017_4-FDR_7159_LV_NODE_018_3;
      phases ABCN;
      from FDR_7159_LV_NODE_017_4;
      to FDR_7159_LV_NODE_018_3;
      length 33.0 m;
      configuration conf_OHLine_51101;
      };



object meter {
      name FDR_7159_LV_NODE_018_3;
      phases ABCN;
      nominal_voltage  240;
      };


object overhead_line {
      name FDR_7159_LV_NODE_018_3-FDR_7159_LV_SP_5333882;
      phases AN;
      from FDR_7159_LV_NODE_018_3;
      to FDR_7159_LV_SP_5333882;
      length 33.5 m;
      configuration conf_OHLine_600;
      };



object meter {
      name FDR_7159_LV_SP_5333882;
      phases AN;
      nominal_voltage  240;
      };


object load {
      name LOAD_8633859;
      parent FDR_7159_LV_SP_5333882;
      phases AN;
      nominal_voltage  240;
      base_power_A Load_7159.result;
      power_fraction_A 1;
      current_fraction_A 0;
      impedance_fraction_A 0;
      power_pf_A L_pf_Head80784.output;
      current_pf_A 1;
      impedance_pf_A 1;
      
      // Customer Trial Appended Data //
      ausgrid_sa1 11103123336;
      ausgrid_annual_consumption 1679.6293814;
      ausgrid_annual_consumption_with_control_load 1709.0105155;
      ausgrid_simple_cell 25;
      ausgrid_elec_band_residential 1;
      ausgrid_elec_band_business 0;
      ausgrid_unit 0;
      ausgrid_income_band 1;
      ausgrid_gas_band 1;
      ausgrid_climate_zone 5;
      ausgrid_controlled_load 1;
      ausgrid_generation 0;
      };


object overhead_line {
      name FDR_7159_LV_NODE_018_3-FDR_7159_LV_SP_5213462;
      phases AN;
      from FDR_7159_LV_NODE_018_3;
      to FDR_7159_LV_SP_5213462;
      length 14.7 m;
      configuration conf_OHLine_600;
      };



object meter {
      name FDR_7159_LV_SP_5213462;
      phases AN;
      nominal_voltage  240;
      };


object load {
      name LOAD_8633983;
      parent FDR_7159_LV_SP_5213462;
      phases AN;
      nominal_voltage  240;
      base_power_A Load_7159.result;
      power_fraction_A 1;
      current_fraction_A 0;
      impedance_fraction_A 0;
      power_pf_A L_pf_Head80784.output;
      current_pf_A 1;
      impedance_pf_A 1;
      
      // Customer Trial Appended Data //
      ausgrid_sa1 11103123336;
      ausgrid_annual_consumption 2984.2424242;
      ausgrid_annual_consumption_with_control_load 4160.4848485;
      ausgrid_simple_cell 25;
      ausgrid_elec_band_residential 1;
      ausgrid_elec_band_business 0;
      ausgrid_unit 0;
      ausgrid_income_band 1;
      ausgrid_gas_band 1;
      ausgrid_climate_zone 5;
      ausgrid_controlled_load 1;
      ausgrid_generation 0;
      };


object overhead_line {
      name FDR_7159_LV_NODE_018_3-FDR_7159_LV_NODE_019_3;
      phases ABCN;
      from FDR_7159_LV_NODE_018_3;
      to FDR_7159_LV_NODE_019_3;
      length 41.6 m;
      configuration conf_OHLine_51027;
      };



object meter {
      name FDR_7159_LV_NODE_019_3;
      phases ABCN;
      nominal_voltage  240;
      };


object overhead_line {
      name FDR_7159_LV_NODE_019_3-FDR_7159_LV_SW_020_T1;
      phases ABCN;
      from FDR_7159_LV_NODE_019_3;
      to FDR_7159_LV_SW_020_T1;
      length 2.0 m;
      configuration conf_OHLine_51027;
      };



object meter {
      name FDR_7159_LV_SW_020_T1;
      phases ABCN;
      nominal_voltage  240;
      };


object overhead_line {
      name FDR_7159_LV_NODE_019_3-FDR_7159_LV_SP_5213464;
      phases AN;
      from FDR_7159_LV_NODE_019_3;
      to FDR_7159_LV_SP_5213464;
      length 28.4 m;
      configuration conf_OHLine_600;
      };



object meter {
      name FDR_7159_LV_SP_5213464;
      phases AN;
      nominal_voltage  240;
      };


object load {
      name LOAD_8633943;
      parent FDR_7159_LV_SP_5213464;
      phases AN;
      nominal_voltage  240;
      base_power_A Load_7159.result;
      power_fraction_A 1;
      current_fraction_A 0;
      impedance_fraction_A 0;
      power_pf_A L_pf_Head80784.output;
      current_pf_A 1;
      impedance_pf_A 1;
      
      // Customer Trial Appended Data //
      ausgrid_sa1 11103123336;
      ausgrid_annual_consumption 2437.4545455;
      ausgrid_annual_consumption_with_control_load 2437.4545455;
      ausgrid_simple_cell 25;
      ausgrid_elec_band_residential 1;
      ausgrid_elec_band_business 0;
      ausgrid_unit 0;
      ausgrid_income_band 1;
      ausgrid_gas_band 1;
      ausgrid_climate_zone 5;
      ausgrid_controlled_load 0;
      ausgrid_generation 0;
      };


object overhead_line {
      name FDR_7159_LV_NODE_019_3-FDR_7159_LV_SP_5335407;
      phases BN;
      from FDR_7159_LV_NODE_019_3;
      to FDR_7159_LV_SP_5335407;
      length 13.4 m;
      configuration conf_OHLine_600;
      };



object meter {
      name FDR_7159_LV_SP_5335407;
      phases BN;
      nominal_voltage  240;
      };


object load {
      name LOAD_8633945;
      parent FDR_7159_LV_SP_5335407;
      phases BN;
      nominal_voltage  240;
      base_power_B Load_7159.result;
      power_fraction_B 1;
      current_fraction_B 0;
      impedance_fraction_B 0;
      power_pf_B L_pf_Head80784.output;
      current_pf_B 1;
      impedance_pf_B 1;
      
      // Customer Trial Appended Data //
      ausgrid_sa1 11103123336;
      ausgrid_annual_consumption 7217.6757991;
      ausgrid_annual_consumption_with_control_load 9232.7364051;
      ausgrid_simple_cell 26;
      ausgrid_elec_band_residential 2;
      ausgrid_elec_band_business 0;
      ausgrid_unit 0;
      ausgrid_income_band 1;
      ausgrid_gas_band 1;
      ausgrid_climate_zone 5;
      ausgrid_controlled_load 1;
      ausgrid_generation 0;
      };


object overhead_line {
      name FDR_7159_LV_NODE_018_3-FDR_7159_LV_SP_5213461;
      phases CN;
      from FDR_7159_LV_NODE_018_3;
      to FDR_7159_LV_SP_5213461;
      length 24.4 m;
      configuration conf_OHLine_600;
      };



object meter {
      name FDR_7159_LV_SP_5213461;
      phases CN;
      nominal_voltage  240;
      };


object load {
      name LOAD_8633949;
      parent FDR_7159_LV_SP_5213461;
      phases CN;
      nominal_voltage  240;
      base_power_C Load_7159.result;
      power_fraction_C 1;
      current_fraction_C 0;
      impedance_fraction_C 0;
      power_pf_C L_pf_Head80784.output;
      current_pf_C 1;
      impedance_pf_C 1;
      
      // Customer Trial Appended Data //
      ausgrid_sa1 11103123336;
      ausgrid_annual_consumption 2909.8787879;
      ausgrid_annual_consumption_with_control_load 4117.8787879;
      ausgrid_simple_cell 25;
      ausgrid_elec_band_residential 1;
      ausgrid_elec_band_business 0;
      ausgrid_unit 0;
      ausgrid_income_band 1;
      ausgrid_gas_band 1;
      ausgrid_climate_zone 5;
      ausgrid_controlled_load 1;
      ausgrid_generation 0;
      };


object overhead_line {
      name FDR_7159_LV_NODE_018_3-FDR_7159_LV_SP_5333881;
      phases AN;
      from FDR_7159_LV_NODE_018_3;
      to FDR_7159_LV_SP_5333881;
      length 32.7 m;
      configuration conf_OHLine_600;
      };



object meter {
      name FDR_7159_LV_SP_5333881;
      phases AN;
      nominal_voltage  240;
      };


object load {
      name LOAD_8633857;
      parent FDR_7159_LV_SP_5333881;
      phases AN;
      nominal_voltage  240;
      base_power_A Load_7159.result;
      power_fraction_A 1;
      current_fraction_A 0;
      impedance_fraction_A 0;
      power_pf_A L_pf_Head80784.output;
      current_pf_A 1;
      impedance_pf_A 1;
      
      // Customer Trial Appended Data //
      ausgrid_sa1 11103123336;
      ausgrid_annual_consumption 3164.3736264;
      ausgrid_annual_consumption_with_control_load 6247.4945055;
      ausgrid_simple_cell 25;
      ausgrid_elec_band_residential 1;
      ausgrid_elec_band_business 0;
      ausgrid_unit 0;
      ausgrid_income_band 1;
      ausgrid_gas_band 1;
      ausgrid_climate_zone 5;
      ausgrid_controlled_load 1;
      ausgrid_generation 0;
      };


object overhead_line {
      name FDR_7159_LV_NODE_018_3-FDR_4850_LV_SW_019_T1;
      phases ABCN;
      from FDR_7159_LV_NODE_018_3;
      to FDR_4850_LV_SW_019_T1;
      length 35.0 m;
      configuration conf_OHLine_51101;
      };



object meter {
      name FDR_4850_LV_SW_019_T1;
      phases ABCN;
      nominal_voltage  240;
      };


object switch {
      name FDR_4850_LV_SW_019;
      phases ABCN;
      from FDR_4850_LV_SW_019_T1;
      to FDR_4850_LV_SW_019_T2;
      status CLOSED;
      };



object meter {
      name FDR_4850_LV_SW_019_T2;
      phases ABCN;
      nominal_voltage  240;
      };


object overhead_line {
      name FDR_7159_LV_NODE_017_4-FDR_7159_LV_SP_5333871;
      phases CN;
      from FDR_7159_LV_NODE_017_4;
      to FDR_7159_LV_SP_5333871;
      length 35.5 m;
      configuration conf_OHLine_600;
      };



object meter {
      name FDR_7159_LV_SP_5333871;
      phases CN;
      nominal_voltage  240;
      };


object load {
      name LOAD_8633883;
      parent FDR_7159_LV_SP_5333871;
      phases CN;
      nominal_voltage  240;
      base_power_C Load_7159.result;
      power_fraction_C 1;
      current_fraction_C 0;
      impedance_fraction_C 0;
      power_pf_C L_pf_Head80784.output;
      current_pf_C 1;
      impedance_pf_C 1;
      
      // Customer Trial Appended Data //
      ausgrid_sa1 11103123336;
      ausgrid_annual_consumption 9805.7523711;
      ausgrid_annual_consumption_with_control_load 9805.7523711;
      ausgrid_simple_cell 27;
      ausgrid_elec_band_residential 3;
      ausgrid_elec_band_business 0;
      ausgrid_unit 0;
      ausgrid_income_band 1;
      ausgrid_gas_band 1;
      ausgrid_climate_zone 5;
      ausgrid_controlled_load 0;
      ausgrid_generation 0;
      };


object overhead_line {
      name FDR_7159_LV_NODE_017_4-FDR_7159_LV_SP_5213463;
      phases CN;
      from FDR_7159_LV_NODE_017_4;
      to FDR_7159_LV_SP_5213463;
      length 13.5 m;
      configuration conf_OHLine_600;
      };



object meter {
      name FDR_7159_LV_SP_5213463;
      phases CN;
      nominal_voltage  240;
      };


object load {
      name LOAD_8633947;
      parent FDR_7159_LV_SP_5213463;
      phases CN;
      nominal_voltage  240;
      base_power_C Load_7159.result;
      power_fraction_C 1;
      current_fraction_C 0;
      impedance_fraction_C 0;
      power_pf_C L_pf_Head80784.output;
      current_pf_C 1;
      impedance_pf_C 1;
      
      // Customer Trial Appended Data //
      ausgrid_sa1 11103123336;
      ausgrid_annual_consumption 4654.2733333;
      ausgrid_annual_consumption_with_control_load 6365.1987879;
      ausgrid_simple_cell 25;
      ausgrid_elec_band_residential 1;
      ausgrid_elec_band_business 0;
      ausgrid_unit 0;
      ausgrid_income_band 1;
      ausgrid_gas_band 1;
      ausgrid_climate_zone 5;
      ausgrid_controlled_load 1;
      ausgrid_generation 1;
      };


object inverter {
      name DG_8633947;
      parent FDR_7159_LV_SP_5213463;
      phases CN;
      generator_mode CONSTANT_PF;
      generator_status ONLINE;
      inverter_type PWM;
      power_factor 0.9;
      rated_power 10000;
      inverter_efficiency 0.95;
      };


object solar {
      name SOLAR_8633947;
      parent DG_8633947;
      phases CN;
      generator_status ONLINE;
      weather ElermoreClimate;
      panel_type SINGLE_CRYSTAL_SILICON;
      generator_mode CONSTANT_PF;
      area 10.431 m^2;
      tilt_angle 24;
      efficiency 0.14;
      orientation_azimuth 350;
      orientation  FIXED_AXIS;
      SOLAR_TILT_MODEL  SOLPOS;
      SOLAR_POWER_MODEL  DEFAULT;
      };


object overhead_line {
      name FDR_7159_LV_NODE_016_2-FDR_7159_LV_SP_5333888;
      phases CN;
      from FDR_7159_LV_NODE_016_2;
      to FDR_7159_LV_SP_5333888;
      length 34.3 m;
      configuration conf_OHLine_600;
      };



object meter {
      name FDR_7159_LV_SP_5333888;
      phases CN;
      nominal_voltage  240;
      };


object load {
      name LOAD_8633715;
      parent FDR_7159_LV_SP_5333888;
      phases CN;
      nominal_voltage  240;
      base_power_C Load_7159.result;
      power_fraction_C 1;
      current_fraction_C 0;
      impedance_fraction_C 0;
      power_pf_C L_pf_Head80784.output;
      current_pf_C 1;
      impedance_pf_C 1;
      
      // Customer Trial Appended Data //
      ausgrid_sa1 11103123336;
      ausgrid_annual_consumption 3719.5604396;
      ausgrid_annual_consumption_with_control_load 5602.0769231;
      ausgrid_simple_cell 25;
      ausgrid_elec_band_residential 1;
      ausgrid_elec_band_business 0;
      ausgrid_unit 0;
      ausgrid_income_band 1;
      ausgrid_gas_band 1;
      ausgrid_climate_zone 5;
      ausgrid_controlled_load 1;
      ausgrid_generation 0;
      };


object overhead_line {
      name FDR_7159_LV_NODE_015-FDR_7159_LV_SP_5213074;
      phases BN;
      from FDR_7159_LV_NODE_015;
      to FDR_7159_LV_SP_5213074;
      length 32.6 m;
      configuration conf_OHLine_600;
      };



object meter {
      name FDR_7159_LV_SP_5213074;
      phases BN;
      nominal_voltage  240;
      };


object load {
      name LOAD_8633897;
      parent FDR_7159_LV_SP_5213074;
      phases BN;
      nominal_voltage  240;
      base_power_B Load_7159.result;
      power_fraction_B 1;
      current_fraction_B 0;
      impedance_fraction_B 0;
      power_pf_B L_pf_Head80784.output;
      current_pf_B 1;
      impedance_pf_B 1;
      
      // Customer Trial Appended Data //
      ausgrid_sa1 11103123336;
      ausgrid_annual_consumption 7074.1678308;
      ausgrid_annual_consumption_with_control_load 7074.1678308;
      ausgrid_simple_cell 26;
      ausgrid_elec_band_residential 2;
      ausgrid_elec_band_business 0;
      ausgrid_unit 0;
      ausgrid_income_band 1;
      ausgrid_gas_band 1;
      ausgrid_climate_zone 5;
      ausgrid_controlled_load 0;
      ausgrid_generation 0;
      };


object overhead_line {
      name FDR_7159_LV_NODE_013_2-FDR_7159_LV_SP_5213072;
      phases AN;
      from FDR_7159_LV_NODE_013_2;
      to FDR_7159_LV_SP_5213072;
      length 23.9 m;
      configuration conf_OHLine_600;
      };



object meter {
      name FDR_7159_LV_SP_5213072;
      phases AN;
      nominal_voltage  240;
      };


object load {
      name LOAD_8633791;
      parent FDR_7159_LV_SP_5213072;
      phases AN;
      nominal_voltage  240;
      base_power_A Load_7159.result;
      power_fraction_A 1;
      current_fraction_A 0;
      impedance_fraction_A 0;
      power_pf_A L_pf_Head80784.output;
      current_pf_A 1;
      impedance_pf_A 1;
      
      // Customer Trial Appended Data //
      ausgrid_sa1 11103123336;
      ausgrid_annual_consumption 3248.7171429;
      ausgrid_annual_consumption_with_control_load 3248.7171429;
      ausgrid_simple_cell 25;
      ausgrid_elec_band_residential 1;
      ausgrid_elec_band_business 0;
      ausgrid_unit 0;
      ausgrid_income_band 1;
      ausgrid_gas_band 1;
      ausgrid_climate_zone 5;
      ausgrid_controlled_load 1;
      ausgrid_generation 0;
      };


object overhead_line {
      name FDR_7159_LV_NODE_013_2-FDR_7159_LV_SP_5333857;
      phases CN;
      from FDR_7159_LV_NODE_013_2;
      to FDR_7159_LV_SP_5333857;
      length 21.6 m;
      configuration conf_OHLine_600;
      };



object meter {
      name FDR_7159_LV_SP_5333857;
      phases CN;
      nominal_voltage  240;
      };


object load {
      name LOAD_8633981;
      parent FDR_7159_LV_SP_5333857;
      phases CN;
      nominal_voltage  240;
      base_power_C Load_7159.result;
      power_fraction_C 1;
      current_fraction_C 0;
      impedance_fraction_C 0;
      power_pf_C L_pf_Head80784.output;
      current_pf_C 1;
      impedance_pf_C 1;
      
      // Customer Trial Appended Data //
      ausgrid_sa1 11103123336;
      ausgrid_annual_consumption 3022.5274725;
      ausgrid_annual_consumption_with_control_load 5239.2527473;
      ausgrid_simple_cell 25;
      ausgrid_elec_band_residential 1;
      ausgrid_elec_band_business 0;
      ausgrid_unit 0;
      ausgrid_income_band 1;
      ausgrid_gas_band 1;
      ausgrid_climate_zone 5;
      ausgrid_controlled_load 1;
      ausgrid_generation 0;
      };


object overhead_line {
      name FDR_7159_LV_NODE_013_2-FDR_7159_LV_SP_5213068;
      phases AN;
      from FDR_7159_LV_NODE_013_2;
      to FDR_7159_LV_SP_5213068;
      length 15.7 m;
      configuration conf_OHLine_600;
      };



object meter {
      name FDR_7159_LV_SP_5213068;
      phases AN;
      nominal_voltage  240;
      };


object load {
      name LOAD_8633767;
      parent FDR_7159_LV_SP_5213068;
      phases AN;
      nominal_voltage  240;
      base_power_A Load_7159.result;
      power_fraction_A 1;
      current_fraction_A 0;
      impedance_fraction_A 0;
      power_pf_A L_pf_Head80784.output;
      current_pf_A 1;
      impedance_pf_A 1;
      
      // Customer Trial Appended Data //
      ausgrid_sa1 11103123336;
      ausgrid_annual_consumption 1943.0549451;
      ausgrid_annual_consumption_with_control_load 3365.956044;
      ausgrid_simple_cell 25;
      ausgrid_elec_band_residential 1;
      ausgrid_elec_band_business 0;
      ausgrid_unit 0;
      ausgrid_income_band 1;
      ausgrid_gas_band 1;
      ausgrid_climate_zone 5;
      ausgrid_controlled_load 1;
      ausgrid_generation 0;
      };


object overhead_line {
      name FDR_7159_LV_NODE_012-FDR_7159_LV_NODE_013_3;
      phases ABCN;
      from FDR_7159_LV_NODE_012;
      to FDR_7159_LV_NODE_013_3;
      length 25.0 m;
      configuration conf_OHLine_57002;
      };



object meter {
      name FDR_7159_LV_NODE_013_3;
      phases ABCN;
      nominal_voltage  240;
      };


object overhead_line {
      name FDR_7159_LV_NODE_013_3-FDR_7159_LV_SP_5213047;
      phases CN;
      from FDR_7159_LV_NODE_013_3;
      to FDR_7159_LV_SP_5213047;
      length 30.3 m;
      configuration conf_OHLine_600;
      };



object meter {
      name FDR_7159_LV_SP_5213047;
      phases CN;
      nominal_voltage  240;
      };


object load {
      name LOAD_8633819;
      parent FDR_7159_LV_SP_5213047;
      phases CN;
      nominal_voltage  240;
      base_power_C Load_7159.result;
      power_fraction_C 1;
      current_fraction_C 0;
      impedance_fraction_C 0;
      power_pf_C L_pf_Head80784.output;
      current_pf_C 1;
      impedance_pf_C 1;
      
      // Customer Trial Appended Data //
      ausgrid_sa1 11103123336;
      ausgrid_annual_consumption 4170.7692308;
      ausgrid_annual_consumption_with_control_load 5885.2857143;
      ausgrid_simple_cell 25;
      ausgrid_elec_band_residential 1;
      ausgrid_elec_band_business 0;
      ausgrid_unit 0;
      ausgrid_income_band 1;
      ausgrid_gas_band 1;
      ausgrid_climate_zone 5;
      ausgrid_controlled_load 1;
      ausgrid_generation 0;
      };


object load {
      name LOAD_8633803;
      parent FDR_7159_LV_SP_5213047;
      phases CN;
      nominal_voltage  240;
      base_power_C Load_7159.result;
      power_fraction_C 1;
      current_fraction_C 0;
      impedance_fraction_C 0;
      power_pf_C L_pf_Head80784.output;
      current_pf_C 1;
      impedance_pf_C 1;
      
      // Customer Trial Appended Data //
      ausgrid_sa1 11103123336;
      ausgrid_annual_consumption 6790.7279381;
      ausgrid_annual_consumption_with_control_load 10725.523093;
      ausgrid_simple_cell 26;
      ausgrid_elec_band_residential 2;
      ausgrid_elec_band_business 0;
      ausgrid_unit 0;
      ausgrid_income_band 1;
      ausgrid_gas_band 1;
      ausgrid_climate_zone 5;
      ausgrid_controlled_load 1;
      ausgrid_generation 0;
      };


object overhead_line {
      name FDR_7159_LV_NODE_013_3-FDR_7159_LV_SP_5213050;
      phases CN;
      from FDR_7159_LV_NODE_013_3;
      to FDR_7159_LV_SP_5213050;
      length 13.7 m;
      configuration conf_OHLine_600;
      };



object meter {
      name FDR_7159_LV_SP_5213050;
      phases CN;
      nominal_voltage  240;
      };


object load {
      name LOAD_8633713;
      parent FDR_7159_LV_SP_5213050;
      phases CN;
      nominal_voltage  240;
      base_power_C Load_7159.result;
      power_fraction_C 1;
      current_fraction_C 0;
      impedance_fraction_C 0;
      power_pf_C L_pf_Head80784.output;
      current_pf_C 1;
      impedance_pf_C 1;
      
      // Customer Trial Appended Data //
      ausgrid_sa1 11103123336;
      ausgrid_annual_consumption 2461.6153846;
      ausgrid_annual_consumption_with_control_load 4992.8131868;
      ausgrid_simple_cell 25;
      ausgrid_elec_band_residential 1;
      ausgrid_elec_band_business 0;
      ausgrid_unit 0;
      ausgrid_income_band 1;
      ausgrid_gas_band 1;
      ausgrid_climate_zone 5;
      ausgrid_controlled_load 1;
      ausgrid_generation 0;
      };


object overhead_line {
      name FDR_7159_LV_NODE_013_3-FDR_7159_LV_NODE_014_2;
      phases ABCN;
      from FDR_7159_LV_NODE_013_3;
      to FDR_7159_LV_NODE_014_2;
      length 33.9 m;
      configuration conf_OHLine_51060;
      };



object meter {
      name FDR_7159_LV_NODE_014_2;
      phases ABCN;
      nominal_voltage  240;
      };


object overhead_line {
      name FDR_7159_LV_NODE_014_2-FDR_7159_LV_SP_5213062;
      phases BN;
      from FDR_7159_LV_NODE_014_2;
      to FDR_7159_LV_SP_5213062;
      length 22.5 m;
      configuration conf_OHLine_600;
      };



object meter {
      name FDR_7159_LV_SP_5213062;
      phases BN;
      nominal_voltage  240;
      };


object load {
      name LOAD_8633871;
      parent FDR_7159_LV_SP_5213062;
      phases BN;
      nominal_voltage  240;
      base_power_B Load_7159.result;
      power_fraction_B 1;
      current_fraction_B 0;
      impedance_fraction_B 0;
      power_pf_B L_pf_Head80784.output;
      current_pf_B 1;
      impedance_pf_B 1;
      
      // Customer Trial Appended Data //
      ausgrid_sa1 11103123336;
      ausgrid_annual_consumption 5518.4790722;
      ausgrid_annual_consumption_with_control_load 8522.8359794;
      ausgrid_simple_cell 26;
      ausgrid_elec_band_residential 2;
      ausgrid_elec_band_business 0;
      ausgrid_unit 0;
      ausgrid_income_band 1;
      ausgrid_gas_band 1;
      ausgrid_climate_zone 5;
      ausgrid_controlled_load 1;
      ausgrid_generation 0;
      };


object overhead_line {
      name FDR_7159_LV_NODE_014_2-FDR_7159_LV_SP_5213051;
      phases CN;
      from FDR_7159_LV_NODE_014_2;
      to FDR_7159_LV_SP_5213051;
      length 12.7 m;
      configuration conf_OHLine_600;
      };



object meter {
      name FDR_7159_LV_SP_5213051;
      phases CN;
      nominal_voltage  240;
      };


object load {
      name LOAD_8633895;
      parent FDR_7159_LV_SP_5213051;
      phases CN;
      nominal_voltage  240;
      base_power_C Load_7159.result;
      power_fraction_C 1;
      current_fraction_C 0;
      impedance_fraction_C 0;
      power_pf_C L_pf_Head80784.output;
      current_pf_C 1;
      impedance_pf_C 1;
      
      // Customer Trial Appended Data //
      ausgrid_sa1 11103123336;
      ausgrid_annual_consumption 2131.5164835;
      ausgrid_annual_consumption_with_control_load 3344.7912088;
      ausgrid_simple_cell 25;
      ausgrid_elec_band_residential 1;
      ausgrid_elec_band_business 0;
      ausgrid_unit 0;
      ausgrid_income_band 1;
      ausgrid_gas_band 1;
      ausgrid_climate_zone 5;
      ausgrid_controlled_load 1;
      ausgrid_generation 0;
      };


object overhead_line {
      name FDR_7159_LV_NODE_014_2-FDR_7159_LV_NODE_015_2;
      phases ABCN;
      from FDR_7159_LV_NODE_014_2;
      to FDR_7159_LV_NODE_015_2;
      length 37.0 m;
      configuration conf_OHLine_51060;
      };



object meter {
      name FDR_7159_LV_NODE_015_2;
      phases ABCN;
      nominal_voltage  240;
      };


object overhead_line {
      name FDR_7159_LV_NODE_015_2-FDR_7159_LV_SP_5213052;
      phases BN;
      from FDR_7159_LV_NODE_015_2;
      to FDR_7159_LV_SP_5213052;
      length 18.8 m;
      configuration conf_OHLine_600;
      };



object meter {
      name FDR_7159_LV_SP_5213052;
      phases BN;
      nominal_voltage  240;
      };


object load {
      name LOAD_8633973;
      parent FDR_7159_LV_SP_5213052;
      phases BN;
      nominal_voltage  240;
      base_power_B Load_7159.result;
      power_fraction_B 1;
      current_fraction_B 0;
      impedance_fraction_B 0;
      power_pf_B L_pf_Head80784.output;
      current_pf_B 1;
      impedance_pf_B 1;
      
      // Customer Trial Appended Data //
      ausgrid_sa1 11103123336;
      ausgrid_annual_consumption 21494.996289;
      ausgrid_annual_consumption_with_control_load 23736.689897;
      ausgrid_simple_cell 27;
      ausgrid_elec_band_residential 3;
      ausgrid_elec_band_business 0;
      ausgrid_unit 0;
      ausgrid_income_band 1;
      ausgrid_gas_band 1;
      ausgrid_climate_zone 5;
      ausgrid_controlled_load 1;
      ausgrid_generation 0;
      };


object overhead_line {
      name FDR_7159_LV_NODE_015_2-FDR_7159_LV_SP_5333873;
      phases BN;
      from FDR_7159_LV_NODE_015_2;
      to FDR_7159_LV_SP_5333873;
      length 24.1 m;
      configuration conf_OHLine_600;
      };



object meter {
      name FDR_7159_LV_SP_5333873;
      phases BN;
      nominal_voltage  240;
      };


object load {
      name LOAD_8633927;
      parent FDR_7159_LV_SP_5333873;
      phases BN;
      nominal_voltage  240;
      base_power_B Load_7159.result;
      power_fraction_B 1;
      current_fraction_B 0;
      impedance_fraction_B 0;
      power_pf_B L_pf_Head80784.output;
      current_pf_B 1;
      impedance_pf_B 1;
      
      // Customer Trial Appended Data //
      ausgrid_sa1 11103123336;
      ausgrid_annual_consumption 8065.3620352;
      ausgrid_annual_consumption_with_control_load 11815.856541;
      ausgrid_simple_cell 26;
      ausgrid_elec_band_residential 2;
      ausgrid_elec_band_business 0;
      ausgrid_unit 0;
      ausgrid_income_band 1;
      ausgrid_gas_band 1;
      ausgrid_climate_zone 5;
      ausgrid_controlled_load 1;
      ausgrid_generation 0;
      };


object overhead_line {
      name FDR_7159_LV_NODE_015_2-FDR_7159_LV_NODE_016_1;
      phases ABCN;
      from FDR_7159_LV_NODE_015_2;
      to FDR_7159_LV_NODE_016_1;
      length 29.7 m;
      configuration conf_OHLine_51060;
      };



object meter {
      name FDR_7159_LV_NODE_016_1;
      phases ABCN;
      nominal_voltage  240;
      };


object overhead_line {
      name FDR_7159_LV_NODE_016_1-FDR_7159_LV_SP_5333865;
      phases CN;
      from FDR_7159_LV_NODE_016_1;
      to FDR_7159_LV_SP_5333865;
      length 29.7 m;
      configuration conf_OHLine_600;
      };



object meter {
      name FDR_7159_LV_SP_5333865;
      phases CN;
      nominal_voltage  240;
      };


object load {
      name LOAD_8633789;
      parent FDR_7159_LV_SP_5333865;
      phases CN;
      nominal_voltage  240;
      base_power_C Load_7159.result;
      power_fraction_C 1;
      current_fraction_C 0;
      impedance_fraction_C 0;
      power_pf_C L_pf_Head80784.output;
      current_pf_C 1;
      impedance_pf_C 1;
      
      // Customer Trial Appended Data //
      ausgrid_sa1 11103123336;
      ausgrid_annual_consumption 4179.8571429;
      ausgrid_annual_consumption_with_control_load 6816.5714286;
      ausgrid_simple_cell 25;
      ausgrid_elec_band_residential 1;
      ausgrid_elec_band_business 0;
      ausgrid_unit 0;
      ausgrid_income_band 1;
      ausgrid_gas_band 1;
      ausgrid_climate_zone 5;
      ausgrid_controlled_load 1;
      ausgrid_generation 0;
      };


object overhead_line {
      name FDR_7159_LV_NODE_016_1-FDR_7159_LV_SP_5213063;
      phases AN;
      from FDR_7159_LV_NODE_016_1;
      to FDR_7159_LV_SP_5213063;
      length 28.4 m;
      configuration conf_OHLine_600;
      };



object meter {
      name FDR_7159_LV_SP_5213063;
      phases AN;
      nominal_voltage  240;
      };


object load {
      name LOAD_8633725;
      parent FDR_7159_LV_SP_5213063;
      phases AN;
      nominal_voltage  240;
      base_power_A Load_7159.result;
      power_fraction_A 1;
      current_fraction_A 0;
      impedance_fraction_A 0;
      power_pf_A L_pf_Head80784.output;
      current_pf_A 1;
      impedance_pf_A 1;
      
      // Customer Trial Appended Data //
      ausgrid_sa1 11103123336;
      ausgrid_annual_consumption 9215.9519795;
      ausgrid_annual_consumption_with_control_load 9981.6332982;
      ausgrid_simple_cell 27;
      ausgrid_elec_band_residential 3;
      ausgrid_elec_band_business 0;
      ausgrid_unit 0;
      ausgrid_income_band 1;
      ausgrid_gas_band 1;
      ausgrid_climate_zone 5;
      ausgrid_controlled_load 1;
      ausgrid_generation 0;
      };


object overhead_line {
      name FDR_7159_LV_NODE_016_1-FDR_7159_LV_NODE_017_3;
      phases ABCN;
      from FDR_7159_LV_NODE_016_1;
      to FDR_7159_LV_NODE_017_3;
      length 40.7 m;
      configuration conf_OHLine_51060;
      };



object meter {
      name FDR_7159_LV_NODE_017_3;
      phases ABCN;
      nominal_voltage  240;
      };


object overhead_line {
      name FDR_7159_LV_NODE_017_3-FDR_7159_LV_SP_5213053;
      phases AN;
      from FDR_7159_LV_NODE_017_3;
      to FDR_7159_LV_SP_5213053;
      length 12.7 m;
      configuration conf_OHLine_600;
      };



object meter {
      name FDR_7159_LV_SP_5213053;
      phases AN;
      nominal_voltage  240;
      };


object load {
      name LOAD_8633801;
      parent FDR_7159_LV_SP_5213053;
      phases AN;
      nominal_voltage  240;
      base_power_A Load_7159.result;
      power_fraction_A 1;
      current_fraction_A 0;
      impedance_fraction_A 0;
      power_pf_A L_pf_Head80784.output;
      current_pf_A 1;
      impedance_pf_A 1;
      
      // Customer Trial Appended Data //
      ausgrid_sa1 11103123336;
      ausgrid_annual_consumption 5387.1503839;
      ausgrid_annual_consumption_with_control_load 7148.1943399;
      ausgrid_simple_cell 25;
      ausgrid_elec_band_residential 1;
      ausgrid_elec_band_business 0;
      ausgrid_unit 0;
      ausgrid_income_band 1;
      ausgrid_gas_band 1;
      ausgrid_climate_zone 5;
      ausgrid_controlled_load 1;
      ausgrid_generation 0;
      };


object overhead_line {
      name FDR_7159_LV_NODE_017_3-FDR_7159_LV_NODE_018_1;
      phases ABCN;
      from FDR_7159_LV_NODE_017_3;
      to FDR_7159_LV_NODE_018_1;
      length 49.2 m;
      configuration conf_OHLine_51101;
      };



object meter {
      name FDR_7159_LV_NODE_018_1;
      phases ABCN;
      nominal_voltage  240;
      };


object overhead_line {
      name FDR_7159_LV_NODE_018_1-FDR_7159_LV_SP_5333875;
      phases CN;
      from FDR_7159_LV_NODE_018_1;
      to FDR_7159_LV_SP_5333875;
      length 28.8 m;
      configuration conf_OHLine_600;
      };



object meter {
      name FDR_7159_LV_SP_5333875;
      phases CN;
      nominal_voltage  240;
      };


object load {
      name LOAD_8633783;
      parent FDR_7159_LV_SP_5333875;
      phases CN;
      nominal_voltage  240;
      base_power_C Load_7159.result;
      power_fraction_C 1;
      current_fraction_C 0;
      impedance_fraction_C 0;
      power_pf_C L_pf_Head80784.output;
      current_pf_C 1;
      impedance_pf_C 1;
      
      // Customer Trial Appended Data //
      ausgrid_sa1 11103123336;
      ausgrid_annual_consumption 6401.1483307;
      ausgrid_annual_consumption_with_control_load 7726.0583307;
      ausgrid_simple_cell 26;
      ausgrid_elec_band_residential 2;
      ausgrid_elec_band_business 0;
      ausgrid_unit 0;
      ausgrid_income_band 1;
      ausgrid_gas_band 1;
      ausgrid_climate_zone 5;
      ausgrid_controlled_load 1;
      ausgrid_generation 1;
      };


object inverter {
      name DG_8633783;
      parent FDR_7159_LV_SP_5333875;
      phases CN;
      generator_mode CONSTANT_PF;
      generator_status ONLINE;
      inverter_type PWM;
      power_factor 0.9;
      rated_power 10000;
      inverter_efficiency 0.95;
      };


object solar {
      name SOLAR_8633783;
      parent DG_8633783;
      phases CN;
      generator_status ONLINE;
      weather ElermoreClimate;
      panel_type SINGLE_CRYSTAL_SILICON;
...