Elermorevale/subs/HP00001431GTX00000001.glm



object transformer {
      name HP00001431GTX00000001_TX;
      phases ABC;
      from HP00001431GTX00000001;
      to HP00001431GTX00000001_LV;
      configuration HP00001431GTX00000001_config;
      };



object meter {
      name HP00001431GTX00000001_LV;
      phases ABCN;
      nominal_voltage  240;
      };


object switch {
      name HP00001431GTX00000001_LV-HP00001431LDI00001431_T1;
      phases ABCN;
      from HP00001431GTX00000001_LV;
      to HP00001431LDI00001431_T1;
      status CLOSED;
      };



object meter {
      name HP00001431LDI00001431_T1;
      phases ABCN;
      nominal_voltage  240;
      };


object fuse {
      name HP00001431LDI00001431;
      phases ABCN;
      from HP00001431LDI00001431_T1;
      to HP00001431LDI00001431_T2;
      phase_A_status GOOD;
      phase_B_status GOOD;
      phase_C_status GOOD;
      current_limit  10000 A;
      mean_replacement_time 3600;
      };



object meter {
      name HP00001431LDI00001431_T2;
      phases ABCN;
      nominal_voltage  240;
      };


object switch {
      name HP00001431LDI00001431_T2-FDR_1431_LV_NODE_032;
      phases ABCN;
      from HP00001431LDI00001431_T2;
      to FDR_1431_LV_NODE_032;
      status CLOSED;
      };



object meter {
      name FDR_1431_LV_NODE_032;
      phases ABCN;
      nominal_voltage  240;
      };


object overhead_line {
      name FDR_1431_LV_NODE_032-FDR_1431_LV_NODE_033_1;
      phases ABCN;
      from FDR_1431_LV_NODE_032;
      to FDR_1431_LV_NODE_033_1;
      length 46.0 m;
      configuration conf_OHLine_51101;
      };



object meter {
      name FDR_1431_LV_NODE_033_1;
      phases ABCN;
      nominal_voltage  240;
      };


object overhead_line {
      name FDR_1431_LV_NODE_033_1-FDR_1431_LV_SP_12577177;
      phases BN;
      from FDR_1431_LV_NODE_033_1;
      to FDR_1431_LV_SP_12577177;
      length 31.1 m;
      configuration conf_OHLine_57018;
      };



object meter {
      name FDR_1431_LV_SP_12577177;
      phases BN;
      nominal_voltage  240;
      };


object load {
      name LOAD_11466653;
      parent FDR_1431_LV_SP_12577177;
      phases BN;
      nominal_voltage  240;
      base_power_B Load_1431.result;
      power_fraction_B 1;
      current_fraction_B 0;
      impedance_fraction_B 0;
      power_pf_B L_pf_Head80784.output;
      current_pf_B 1;
      impedance_pf_B 1;
      
      // Customer Trial Appended Data //
      // No NMI Data
      };


object overhead_line {
      name FDR_1431_LV_NODE_033_1-FDR_38589_LV_SW_034_T1;
      phases ABCN;
      from FDR_1431_LV_NODE_033_1;
      to FDR_38589_LV_SW_034_T1;
      length 54.5 m;
      configuration conf_OHLine_51101;
      };



object meter {
      name FDR_38589_LV_SW_034_T1;
      phases ABCN;
      nominal_voltage  240;
      };


object overhead_line {
      name FDR_1431_LV_NODE_033_1-FDR_1431_LV_NODE_034;
      phases ABCN;
      from FDR_1431_LV_NODE_033_1;
      to FDR_1431_LV_NODE_034;
      length 38.9 m;
      configuration conf_OHLine_51101;
      };



object meter {
      name FDR_1431_LV_NODE_034;
      phases ABCN;
      nominal_voltage  240;
      };


object overhead_line {
      name FDR_1431_LV_NODE_034-FDR_1431_LV_SP_5334811;
      phases BN;
      from FDR_1431_LV_NODE_034;
      to FDR_1431_LV_SP_5334811;
      length 19.5 m;
      configuration conf_OHLine_600;
      };



object meter {
      name FDR_1431_LV_SP_5334811;
      phases BN;
      nominal_voltage  240;
      };


object load {
      name LOAD_11466601;
      parent FDR_1431_LV_SP_5334811;
      phases BN;
      nominal_voltage  240;
      base_power_B Load_1431.result;
      power_fraction_B 1;
      current_fraction_B 0;
      impedance_fraction_B 0;
      power_pf_B L_pf_Head80784.output;
      current_pf_B 1;
      impedance_pf_B 1;
      
      // Customer Trial Appended Data //
      ausgrid_sa1 11103123316;
      ausgrid_annual_consumption 4176.0927835;
      ausgrid_annual_consumption_with_control_load 4176.0927835;
      ausgrid_simple_cell 25;
      ausgrid_elec_band_residential 1;
      ausgrid_elec_band_business 0;
      ausgrid_unit 0;
      ausgrid_income_band 1;
      ausgrid_gas_band 1;
      ausgrid_climate_zone 5;
      ausgrid_controlled_load 0;
      ausgrid_generation 0;
      };


object overhead_line {
      name FDR_1431_LV_NODE_034-FDR_1431_LV_NODE_035_1;
      phases ABCN;
      from FDR_1431_LV_NODE_034;
      to FDR_1431_LV_NODE_035_1;
      length 44.1 m;
      configuration conf_OHLine_51101;
      };



object meter {
      name FDR_1431_LV_NODE_035_1;
      phases ABCN;
      nominal_voltage  240;
      };


object overhead_line {
      name FDR_1431_LV_NODE_035_1-FDR_1431_LV_SP_5334790;
      phases AN;
      from FDR_1431_LV_NODE_035_1;
      to FDR_1431_LV_SP_5334790;
      length 25.6 m;
      configuration conf_OHLine_600;
      };



object meter {
      name FDR_1431_LV_SP_5334790;
      phases AN;
      nominal_voltage  240;
      };


object load {
      name LOAD_11466619;
      parent FDR_1431_LV_SP_5334790;
      phases AN;
      nominal_voltage  240;
      base_power_A Load_1431.result;
      power_fraction_A 1;
      current_fraction_A 0;
      impedance_fraction_A 0;
      power_pf_A L_pf_Head80784.output;
      current_pf_A 1;
      impedance_pf_A 1;
      
      // Customer Trial Appended Data //
      ausgrid_sa1 11103123316;
      ausgrid_annual_consumption 4574.9793814;
      ausgrid_annual_consumption_with_control_load 7736.7216495;
      ausgrid_simple_cell 25;
      ausgrid_elec_band_residential 1;
      ausgrid_elec_band_business 0;
      ausgrid_unit 0;
      ausgrid_income_band 1;
      ausgrid_gas_band 1;
      ausgrid_climate_zone 5;
      ausgrid_controlled_load 1;
      ausgrid_generation 0;
      };


object overhead_line {
      name FDR_1431_LV_NODE_035_1-FDR_1431_LV_NODE_036_1;
      phases ABCN;
      from FDR_1431_LV_NODE_035_1;
      to FDR_1431_LV_NODE_036_1;
      length 38.6 m;
      configuration conf_OHLine_51101;
      };



object meter {
      name FDR_1431_LV_NODE_036_1;
      phases ABCN;
      nominal_voltage  240;
      };


object overhead_line {
      name FDR_1431_LV_NODE_036_1-FDR_1431_LV_SP_5334808;
      phases BN;
      from FDR_1431_LV_NODE_036_1;
      to FDR_1431_LV_SP_5334808;
      length 14.8 m;
      configuration conf_OHLine_600;
      };



object meter {
      name FDR_1431_LV_SP_5334808;
      phases BN;
      nominal_voltage  240;
      };


object load {
      name LOAD_11466551;
      parent FDR_1431_LV_SP_5334808;
      phases BN;
      nominal_voltage  240;
      base_power_B Load_1431.result;
      power_fraction_B 1;
      current_fraction_B 0;
      impedance_fraction_B 0;
      power_pf_B L_pf_Head80784.output;
      current_pf_B 1;
      impedance_pf_B 1;
      
      // Customer Trial Appended Data //
      ausgrid_sa1 11103123316;
      ausgrid_annual_consumption 8225.9785567;
      ausgrid_annual_consumption_with_control_load 11269.361546;
      ausgrid_simple_cell 26;
      ausgrid_elec_band_residential 2;
      ausgrid_elec_band_business 0;
      ausgrid_unit 0;
      ausgrid_income_band 1;
      ausgrid_gas_band 1;
      ausgrid_climate_zone 5;
      ausgrid_controlled_load 1;
      ausgrid_generation 0;
      };


object overhead_line {
      name FDR_1431_LV_NODE_036_1-FDR_1431_LV_SP_5334793;
      phases BN;
      from FDR_1431_LV_NODE_036_1;
      to FDR_1431_LV_SP_5334793;
      length 29.5 m;
      configuration conf_OHLine_600;
      };



object meter {
      name FDR_1431_LV_SP_5334793;
      phases BN;
      nominal_voltage  240;
      };


object load {
      name LOAD_11466553;
      parent FDR_1431_LV_SP_5334793;
      phases BN;
      nominal_voltage  240;
      base_power_B Load_1431.result;
      power_fraction_B 1;
      current_fraction_B 0;
      impedance_fraction_B 0;
      power_pf_B L_pf_Head80784.output;
      current_pf_B 1;
      impedance_pf_B 1;
      
      // Customer Trial Appended Data //
      ausgrid_sa1 11103123316;
      ausgrid_annual_consumption 889.78350515;
      ausgrid_annual_consumption_with_control_load 1859.0979381;
      ausgrid_simple_cell 25;
      ausgrid_elec_band_residential 1;
      ausgrid_elec_band_business 0;
      ausgrid_unit 0;
      ausgrid_income_band 1;
      ausgrid_gas_band 1;
      ausgrid_climate_zone 5;
      ausgrid_controlled_load 1;
      ausgrid_generation 0;
      };


object overhead_line {
      name FDR_1431_LV_NODE_036_1-FDR_1431_LV_NODE_037_1;
      phases ABCN;
      from FDR_1431_LV_NODE_036_1;
      to FDR_1431_LV_NODE_037_1;
      length 40.2 m;
      configuration conf_OHLine_51101;
      };



object meter {
      name FDR_1431_LV_NODE_037_1;
      phases ABCN;
      nominal_voltage  240;
      };


object overhead_line {
      name FDR_1431_LV_NODE_037_1-FDR_1431_LV_NODE_038_2;
      phases ABCN;
      from FDR_1431_LV_NODE_037_1;
      to FDR_1431_LV_NODE_038_2;
      length 34.1 m;
      configuration conf_OHLine_51101;
      };



object meter {
      name FDR_1431_LV_NODE_038_2;
      phases ABCN;
      nominal_voltage  240;
      };


object overhead_line {
      name FDR_1431_LV_NODE_038_2-FDR_1431_LV_SP_5334797;
      phases CN;
      from FDR_1431_LV_NODE_038_2;
      to FDR_1431_LV_SP_5334797;
      length 27.2 m;
      configuration conf_OHLine_600;
      };



object meter {
      name FDR_1431_LV_SP_5334797;
      phases CN;
      nominal_voltage  240;
      };


object load {
      name LOAD_11466567;
      parent FDR_1431_LV_SP_5334797;
      phases CN;
      nominal_voltage  240;
      base_power_C Load_1431.result;
      power_fraction_C 1;
      current_fraction_C 0;
      impedance_fraction_C 0;
      power_pf_C L_pf_Head80784.output;
      current_pf_C 1;
      impedance_pf_C 1;
      
      // Customer Trial Appended Data //
      ausgrid_sa1 11103123316;
      ausgrid_annual_consumption 3839.416129;
      ausgrid_annual_consumption_with_control_load 6271.383871;
      ausgrid_simple_cell 25;
      ausgrid_elec_band_residential 1;
      ausgrid_elec_band_business 0;
      ausgrid_unit 0;
      ausgrid_income_band 1;
      ausgrid_gas_band 1;
      ausgrid_climate_zone 5;
      ausgrid_controlled_load 1;
      ausgrid_generation 0;
      };


object overhead_line {
      name FDR_1431_LV_NODE_038_2-FDR_1431_LV_SP_5334798;
      phases AN;
      from FDR_1431_LV_NODE_038_2;
      to FDR_1431_LV_SP_5334798;
      length 33.6 m;
      configuration conf_OHLine_600;
      };



object meter {
      name FDR_1431_LV_SP_5334798;
      phases AN;
      nominal_voltage  240;
      };


object load {
      name LOAD_11466573;
      parent FDR_1431_LV_SP_5334798;
      phases AN;
      nominal_voltage  240;
      base_power_A Load_1431.result;
      power_fraction_A 1;
      current_fraction_A 0;
      impedance_fraction_A 0;
      power_pf_A L_pf_Head80784.output;
      current_pf_A 1;
      impedance_pf_A 1;
      
      // Customer Trial Appended Data //
      ausgrid_sa1 11103123316;
      ausgrid_annual_consumption 7861.2704124;
      ausgrid_annual_consumption_with_control_load 12920.543505;
      ausgrid_simple_cell 26;
      ausgrid_elec_band_residential 2;
      ausgrid_elec_band_business 0;
      ausgrid_unit 0;
      ausgrid_income_band 1;
      ausgrid_gas_band 1;
      ausgrid_climate_zone 5;
      ausgrid_controlled_load 1;
      ausgrid_generation 0;
      };


object overhead_line {
      name FDR_1431_LV_NODE_038_2-FDR_1431_LV_NODE_039;
      phases ABCN;
      from FDR_1431_LV_NODE_038_2;
      to FDR_1431_LV_NODE_039;
      length 41.6 m;
      configuration conf_OHLine_51101;
      };



object meter {
      name FDR_1431_LV_NODE_039;
      phases ABCN;
      nominal_voltage  240;
      };


object overhead_line {
      name FDR_1431_LV_NODE_039-FDR_1431_LV_SP_5334803;
      phases CN;
      from FDR_1431_LV_NODE_039;
      to FDR_1431_LV_SP_5334803;
      length 21.2 m;
      configuration conf_OHLine_600;
      };



object meter {
      name FDR_1431_LV_SP_5334803;
      phases CN;
      nominal_voltage  240;
      };


object load {
      name LOAD_11466677;
      parent FDR_1431_LV_SP_5334803;
      phases CN;
      nominal_voltage  240;
      base_power_C Load_1431.result;
      power_fraction_C 1;
      current_fraction_C 0;
      impedance_fraction_C 0;
      power_pf_C L_pf_Head80784.output;
      current_pf_C 1;
      impedance_pf_C 1;
      
      // Customer Trial Appended Data //
      ausgrid_sa1 11103123316;
      ausgrid_annual_consumption 5574.0606186;
      ausgrid_annual_consumption_with_control_load 10518.027216;
      ausgrid_simple_cell 26;
      ausgrid_elec_band_residential 2;
      ausgrid_elec_band_business 0;
      ausgrid_unit 0;
      ausgrid_income_band 1;
      ausgrid_gas_band 1;
      ausgrid_climate_zone 5;
      ausgrid_controlled_load 1;
      ausgrid_generation 0;
      };


object overhead_line {
      name FDR_1431_LV_NODE_039-FDR_1431_LV_SP_5334799;
      phases CN;
      from FDR_1431_LV_NODE_039;
      to FDR_1431_LV_SP_5334799;
      length 32.7 m;
      configuration conf_OHLine_600;
      };



object meter {
      name FDR_1431_LV_SP_5334799;
      phases CN;
      nominal_voltage  240;
      };


object load {
      name LOAD_11466577;
      parent FDR_1431_LV_SP_5334799;
      phases CN;
      nominal_voltage  240;
      base_power_C Load_1431.result;
      power_fraction_C 1;
      current_fraction_C 0;
      impedance_fraction_C 0;
      power_pf_C L_pf_Head80784.output;
      current_pf_C 1;
      impedance_pf_C 1;
      
      // Customer Trial Appended Data //
      ausgrid_sa1 11103123316;
      ausgrid_annual_consumption 4451.2615385;
      ausgrid_annual_consumption_with_control_load 8679.8769231;
      ausgrid_simple_cell 25;
      ausgrid_elec_band_residential 1;
      ausgrid_elec_band_business 0;
      ausgrid_unit 0;
      ausgrid_income_band 1;
      ausgrid_gas_band 1;
      ausgrid_climate_zone 5;
      ausgrid_controlled_load 1;
      ausgrid_generation 0;
      };


object overhead_line {
      name FDR_1431_LV_NODE_039-FDR_1431_LV_SP_5334802;
      phases AN;
      from FDR_1431_LV_NODE_039;
      to FDR_1431_LV_SP_5334802;
      length 14.0 m;
      configuration conf_OHLine_600;
      };



object meter {
      name FDR_1431_LV_SP_5334802;
      phases AN;
      nominal_voltage  240;
      };


object load {
      name LOAD_11466575;
      parent FDR_1431_LV_SP_5334802;
      phases AN;
      nominal_voltage  240;
      base_power_A Load_1431.result;
      power_fraction_A 1;
      current_fraction_A 0;
      impedance_fraction_A 0;
      power_pf_A L_pf_Head80784.output;
      current_pf_A 1;
      impedance_pf_A 1;
      
      // Customer Trial Appended Data //
      ausgrid_sa1 11103123316;
      ausgrid_annual_consumption 24161.596484;
      ausgrid_annual_consumption_with_control_load 27150.417102;
      ausgrid_simple_cell 27;
      ausgrid_elec_band_residential 3;
      ausgrid_elec_band_business 0;
      ausgrid_unit 0;
      ausgrid_income_band 1;
      ausgrid_gas_band 1;
      ausgrid_climate_zone 5;
      ausgrid_controlled_load 1;
      ausgrid_generation 0;
      };


object overhead_line {
      name FDR_1431_LV_NODE_039-FDR_1431_LV_SP_5334800;
      phases CN;
      from FDR_1431_LV_NODE_039;
      to FDR_1431_LV_SP_5334800;
      length 26.1 m;
      configuration conf_OHLine_600;
      };



object meter {
      name FDR_1431_LV_SP_5334800;
      phases CN;
      nominal_voltage  240;
      };


object load {
      name LOAD_11466581;
      parent FDR_1431_LV_SP_5334800;
      phases CN;
      nominal_voltage  240;
      base_power_C Load_1431.result;
      power_fraction_C 1;
      current_fraction_C 0;
      impedance_fraction_C 0;
      power_pf_C L_pf_Head80784.output;
      current_pf_C 1;
      impedance_pf_C 1;
      
      // Customer Trial Appended Data //
      ausgrid_sa1 11103123316;
      ausgrid_annual_consumption 9679.0690722;
      ausgrid_annual_consumption_with_control_load 14484.372062;
      ausgrid_simple_cell 27;
      ausgrid_elec_band_residential 3;
      ausgrid_elec_band_business 0;
      ausgrid_unit 0;
      ausgrid_income_band 1;
      ausgrid_gas_band 1;
      ausgrid_climate_zone 5;
      ausgrid_controlled_load 1;
      ausgrid_generation 0;
      };


object overhead_line {
      name FDR_1431_LV_NODE_039-FDR_1431_LV_SP_5334801;
      phases CN;
      from FDR_1431_LV_NODE_039;
      to FDR_1431_LV_SP_5334801;
      length 16.3 m;
      configuration conf_OHLine_600;
      };



object meter {
      name FDR_1431_LV_SP_5334801;
      phases CN;
      nominal_voltage  240;
      };


object load {
      name LOAD_11466579;
      parent FDR_1431_LV_SP_5334801;
      phases CN;
      nominal_voltage  240;
      base_power_C Load_1431.result;
      power_fraction_C 1;
      current_fraction_C 0;
      impedance_fraction_C 0;
      power_pf_C L_pf_Head80784.output;
      current_pf_C 1;
      impedance_pf_C 1;
      
      // Customer Trial Appended Data //
      ausgrid_sa1 11103123316;
      ausgrid_annual_consumption 4967.6453608;
      ausgrid_annual_consumption_with_control_load 7478.028866;
      ausgrid_simple_cell 25;
      ausgrid_elec_band_residential 1;
      ausgrid_elec_band_business 0;
      ausgrid_unit 0;
      ausgrid_income_band 1;
      ausgrid_gas_band 1;
      ausgrid_climate_zone 5;
      ausgrid_controlled_load 1;
      ausgrid_generation 0;
      };


object overhead_line {
      name FDR_1431_LV_NODE_038_2-FDR_1431_LV_SP_5334804;
      phases BN;
      from FDR_1431_LV_NODE_038_2;
      to FDR_1431_LV_SP_5334804;
      length 17.7 m;
      configuration conf_OHLine_600;
      };



object meter {
      name FDR_1431_LV_SP_5334804;
      phases BN;
      nominal_voltage  240;
      };


object load {
      name LOAD_11466565;
      parent FDR_1431_LV_SP_5334804;
      phases BN;
      nominal_voltage  240;
      base_power_B Load_1431.result;
      power_fraction_B 1;
      current_fraction_B 0;
      impedance_fraction_B 0;
      power_pf_B L_pf_Head80784.output;
      current_pf_B 1;
      impedance_pf_B 1;
      
      // Customer Trial Appended Data //
      ausgrid_sa1 11103123316;
      ausgrid_annual_consumption 8337.5113402;
      ausgrid_annual_consumption_with_control_load 10614.230619;
      ausgrid_simple_cell 26;
      ausgrid_elec_band_residential 2;
      ausgrid_elec_band_business 0;
      ausgrid_unit 0;
      ausgrid_income_band 1;
      ausgrid_gas_band 1;
      ausgrid_climate_zone 5;
      ausgrid_controlled_load 1;
      ausgrid_generation 1;
      };


object inverter {
      name DG_11466565;
      parent FDR_1431_LV_SP_5334804;
      phases BN;
      generator_mode CONSTANT_PF;
      generator_status ONLINE;
      inverter_type PWM;
      power_factor 0.9;
      rated_power 10000;
      inverter_efficiency 0.95;
      };


object solar {
      name SOLAR_11466565;
      parent DG_11466565;
      phases BN;
      generator_status ONLINE;
      weather ElermoreClimate;
      panel_type SINGLE_CRYSTAL_SILICON;
      generator_mode CONSTANT_PF;
      area 11.59 m^2;
      tilt_angle 18;
      efficiency 0.14;
      orientation_azimuth 310;
      orientation  FIXED_AXIS;
      SOLAR_TILT_MODEL  SOLPOS;
      SOLAR_POWER_MODEL  DEFAULT;
      };


object overhead_line {
      name FDR_1431_LV_NODE_038_2-FDR_1431_LV_SP_5334805;
      phases BN;
      from FDR_1431_LV_NODE_038_2;
      to FDR_1431_LV_SP_5334805;
      length 15.2 m;
      configuration conf_OHLine_600;
      };



object meter {
      name FDR_1431_LV_SP_5334805;
      phases BN;
      nominal_voltage  240;
      };


object load {
      name LOAD_11466561;
      parent FDR_1431_LV_SP_5334805;
      phases BN;
      nominal_voltage  240;
      base_power_B Load_1431.result;
      power_fraction_B 1;
      current_fraction_B 0;
      impedance_fraction_B 0;
      power_pf_B L_pf_Head80784.output;
      current_pf_B 1;
      impedance_pf_B 1;
      
      // Customer Trial Appended Data //
      ausgrid_sa1 11103123316;
      ausgrid_annual_consumption 5016.9561856;
      ausgrid_annual_consumption_with_control_load 7711.7387629;
      ausgrid_simple_cell 25;
      ausgrid_elec_band_residential 1;
      ausgrid_elec_band_business 0;
      ausgrid_unit 0;
      ausgrid_income_band 1;
      ausgrid_gas_band 1;
      ausgrid_climate_zone 5;
      ausgrid_controlled_load 1;
      ausgrid_generation 0;
      };


object overhead_line {
      name FDR_1431_LV_NODE_037_1-FDR_1431_LV_SP_5334795;
      phases CN;
      from FDR_1431_LV_NODE_037_1;
      to FDR_1431_LV_SP_5334795;
      length 27.3 m;
      configuration conf_OHLine_600;
      };



object meter {
      name FDR_1431_LV_SP_5334795;
      phases CN;
      nominal_voltage  240;
      };


object load {
      name LOAD_11466559;
      parent FDR_1431_LV_SP_5334795;
      phases CN;
      nominal_voltage  240;
      base_power_C Load_1431.result;
      power_fraction_C 1;
      current_fraction_C 0;
      impedance_fraction_C 0;
      power_pf_C L_pf_Head80784.output;
      current_pf_C 1;
      impedance_pf_C 1;
      
      // Customer Trial Appended Data //
      ausgrid_sa1 11103123316;
      ausgrid_annual_consumption 7772.1922581;
      ausgrid_annual_consumption_with_control_load 13164.584516;
      ausgrid_simple_cell 26;
      ausgrid_elec_band_residential 2;
      ausgrid_elec_band_business 0;
      ausgrid_unit 0;
      ausgrid_income_band 1;
      ausgrid_gas_band 1;
      ausgrid_climate_zone 5;
      ausgrid_controlled_load 1;
      ausgrid_generation 0;
      };


object overhead_line {
      name FDR_1431_LV_NODE_037_1-FDR_1431_LV_SP_5334806;
      phases BN;
      from FDR_1431_LV_NODE_037_1;
      to FDR_1431_LV_SP_5334806;
      length 15.3 m;
      configuration conf_OHLine_600;
      };



object meter {
      name FDR_1431_LV_SP_5334806;
      phases BN;
      nominal_voltage  240;
      };


object load {
      name LOAD_11466557;
      parent FDR_1431_LV_SP_5334806;
      phases BN;
      nominal_voltage  240;
      base_power_B Load_1431.result;
      power_fraction_B 1;
      current_fraction_B 0;
      impedance_fraction_B 0;
      power_pf_B L_pf_Head80784.output;
      current_pf_B 1;
      impedance_pf_B 1;
      
      // Customer Trial Appended Data //
      ausgrid_sa1 11103123316;
      ausgrid_annual_consumption 5146.8613043;
      ausgrid_annual_consumption_with_control_load 8249.2456522;
      ausgrid_simple_cell 25;
      ausgrid_elec_band_residential 1;
      ausgrid_elec_band_business 0;
      ausgrid_unit 0;
      ausgrid_income_band 1;
      ausgrid_gas_band 1;
      ausgrid_climate_zone 5;
      ausgrid_controlled_load 1;
      ausgrid_generation 0;
      };


object overhead_line {
      name FDR_1431_LV_NODE_037_1-FDR_1431_LV_SP_5334794;
      phases AN;
      from FDR_1431_LV_NODE_037_1;
      to FDR_1431_LV_SP_5334794;
      length 33.3 m;
      configuration conf_OHLine_600;
      };



object meter {
      name FDR_1431_LV_SP_5334794;
      phases AN;
      nominal_voltage  240;
      };


object load {
      name LOAD_11466555;
      parent FDR_1431_LV_SP_5334794;
      phases AN;
      nominal_voltage  240;
      base_power_A Load_1431.result;
      power_fraction_A 1;
      current_fraction_A 0;
      impedance_fraction_A 0;
      power_pf_A L_pf_Head80784.output;
      current_pf_A 1;
      impedance_pf_A 1;
      
      // Customer Trial Appended Data //
      ausgrid_sa1 11103123316;
      ausgrid_annual_consumption 3724.2171134;
      ausgrid_annual_consumption_with_control_load 6971.0447423;
      ausgrid_simple_cell 25;
      ausgrid_elec_band_residential 1;
      ausgrid_elec_band_business 0;
      ausgrid_unit 0;
      ausgrid_income_band 1;
      ausgrid_gas_band 1;
      ausgrid_climate_zone 5;
      ausgrid_controlled_load 1;
      ausgrid_generation 0;
      };


object overhead_line {
      name FDR_1431_LV_NODE_037_1-FDR_1431_LV_SP_5334796;
      phases AN;
      from FDR_1431_LV_NODE_037_1;
      to FDR_1431_LV_SP_5334796;
      length 30.9 m;
      configuration conf_OHLine_600;
      };



object meter {
      name FDR_1431_LV_SP_5334796;
      phases AN;
      nominal_voltage  240;
      };


object load {
      name LOAD_11466563;
      parent FDR_1431_LV_SP_5334796;
      phases AN;
      nominal_voltage  240;
      base_power_A Load_1431.result;
      power_fraction_A 1;
      current_fraction_A 0;
      impedance_fraction_A 0;
      power_pf_A L_pf_Head80784.output;
      current_pf_A 1;
      impedance_pf_A 1;
      
      // Customer Trial Appended Data //
      ausgrid_sa1 11103123316;
      ausgrid_annual_consumption 4575.4536082;
      ausgrid_annual_consumption_with_control_load 6159.6804124;
      ausgrid_simple_cell 25;
      ausgrid_elec_band_residential 1;
      ausgrid_elec_band_business 0;
      ausgrid_unit 0;
      ausgrid_income_band 1;
      ausgrid_gas_band 1;
      ausgrid_climate_zone 5;
      ausgrid_controlled_load 1;
      ausgrid_generation 0;
      };


object overhead_line {
      name FDR_1431_LV_NODE_036_1-FDR_1431_LV_SP_5334807;
      phases BN;
      from FDR_1431_LV_NODE_036_1;
      to FDR_1431_LV_SP_5334807;
      length 33.6 m;
      configuration conf_OHLine_600;
      };



object meter {
      name FDR_1431_LV_SP_5334807;
      phases BN;
      nominal_voltage  240;
      };


object load {
      name LOAD_11466569;
      parent FDR_1431_LV_SP_5334807;
      phases BN;
      nominal_voltage  240;
      base_power_B Load_1431.result;
      power_fraction_B 1;
      current_fraction_B 0;
      impedance_fraction_B 0;
      power_pf_B L_pf_Head80784.output;
      current_pf_B 1;
      impedance_pf_B 1;
      
      // Customer Trial Appended Data //
      ausgrid_sa1 11103123316;
      ausgrid_annual_consumption 6566.8507216;
      ausgrid_annual_consumption_with_control_load 9204.1207216;
      ausgrid_simple_cell 26;
      ausgrid_elec_band_residential 2;
      ausgrid_elec_band_business 0;
      ausgrid_unit 0;
      ausgrid_income_band 1;
      ausgrid_gas_band 1;
      ausgrid_climate_zone 5;
      ausgrid_controlled_load 1;
      ausgrid_generation 1;
      };


object inverter {
      name DG_11466569;
      parent FDR_1431_LV_SP_5334807;
      phases BN;
      generator_mode CONSTANT_PF;
      generator_status ONLINE;
      inverter_type PWM;
      power_factor 0.9;
      rated_power 10000;
      inverter_efficiency 0.95;
      };


object solar {
      name SOLAR_11466569;
      parent DG_11466569;
      phases BN;
      generator_status ONLINE;
      weather ElermoreClimate;
      panel_type SINGLE_CRYSTAL_SILICON;
      generator_mode CONSTANT_PF;
      area 9.882 m^2;
      tilt_angle 21;
      efficiency 0.14;
      orientation_azimuth 30;
      orientation  FIXED_AXIS;
      SOLAR_TILT_MODEL  SOLPOS;
      SOLAR_POWER_MODEL  DEFAULT;
      };


object overhead_line {
      name FDR_1431_LV_NODE_036_1-FDR_1431_LV_NODE_037_2;
      phases ABCN;
      from FDR_1431_LV_NODE_036_1;
      to FDR_1431_LV_NODE_037_2;
      length 41.6 m;
      configuration conf_OHLine_51101;
      };



object meter {
      name FDR_1431_LV_NODE_037_2;
      phases ABCN;
      nominal_voltage  240;
      };


object overhead_line {
      name FDR_1431_LV_NODE_037_2-FDR_1431_LV_SP_5334818;
      phases BN;
      from FDR_1431_LV_NODE_037_2;
...