Elermorevale/subs/HP00002126GTX00000001.glm



object transformer {
      name HP00002126GTX00000001_TX;
      phases ABC;
      from HP00002126GTX00000001;
      to HP00002126GTX00000001_LV;
      configuration HP00002126GTX00000001_config;
      };



object meter {
      name HP00002126GTX00000001_LV;
      phases ABCN;
      nominal_voltage  240;
      };


object switch {
      name HP00002126GTX00000001_LV-HP00002126LDI00002126_T1;
      phases ABCN;
      from HP00002126GTX00000001_LV;
      to HP00002126LDI00002126_T1;
      status CLOSED;
      };



object meter {
      name HP00002126LDI00002126_T1;
      phases ABCN;
      nominal_voltage  240;
      };


object fuse {
      name HP00002126LDI00002126;
      phases ABCN;
      from HP00002126LDI00002126_T1;
      to HP00002126LDI00002126_T2;
      phase_A_status GOOD;
      phase_B_status GOOD;
      phase_C_status GOOD;
      current_limit  10000 A;
      mean_replacement_time 3600;
      };



object meter {
      name HP00002126LDI00002126_T2;
      phases ABCN;
      nominal_voltage  240;
      };


object switch {
      name HP00002126LDI00002126_T2-FDR_2126_LV_NODE_044;
      phases ABCN;
      from HP00002126LDI00002126_T2;
      to FDR_2126_LV_NODE_044;
      status CLOSED;
      };



object meter {
      name FDR_2126_LV_NODE_044;
      phases ABCN;
      nominal_voltage  240;
      };


object overhead_line {
      name FDR_2126_LV_NODE_044-FDR_2126_LV_NODE_045_1;
      phases ABCN;
      from FDR_2126_LV_NODE_044;
      to FDR_2126_LV_NODE_045_1;
      length 45.5 m;
      configuration conf_OHLine_51060;
      };



object meter {
      name FDR_2126_LV_NODE_045_1;
      phases ABCN;
      nominal_voltage  240;
      };


object overhead_line {
      name FDR_2126_LV_NODE_045_1-FDR_2126_LV_NODE_046;
      phases ABCN;
      from FDR_2126_LV_NODE_045_1;
      to FDR_2126_LV_NODE_046;
      length 61.8 m;
      configuration conf_OHLine_51060;
      };



object meter {
      name FDR_2126_LV_NODE_046;
      phases ABCN;
      nominal_voltage  240;
      };


object overhead_line {
      name FDR_2126_LV_NODE_046-FDR_2126_LV_SP_5335250;
      phases BN;
      from FDR_2126_LV_NODE_046;
      to FDR_2126_LV_SP_5335250;
      length 28.3 m;
      configuration conf_OHLine_600;
      };



object meter {
      name FDR_2126_LV_SP_5335250;
      phases BN;
      nominal_voltage  240;
      };


object load {
      name LOAD_8306604;
      parent FDR_2126_LV_SP_5335250;
      phases BN;
      nominal_voltage  240;
      base_power_B Load_2126.result;
      power_fraction_B 1;
      current_fraction_B 0;
      impedance_fraction_B 0;
      power_pf_B L_pf_Head80784.output;
      current_pf_B 1;
      impedance_pf_B 1;
      
      // Customer Trial Appended Data //
      ausgrid_sa1 11103123322;
      ausgrid_annual_consumption 4299.7265306;
      ausgrid_annual_consumption_with_control_load 4299.7265306;
      ausgrid_simple_cell 25;
      ausgrid_elec_band_residential 1;
      ausgrid_elec_band_business 0;
      ausgrid_unit 0;
      ausgrid_income_band 1;
      ausgrid_gas_band 1;
      ausgrid_climate_zone 5;
      ausgrid_controlled_load 0;
      ausgrid_generation 0;
      };



object overhead_line {
      name FDR_2126_LV_NODE_046-FDR_2126_LV_SP_5335217;
      phases AN;
      from FDR_2126_LV_NODE_046;
      to FDR_2126_LV_SP_5335217;
      length 50.1 m;
      configuration conf_OHLine_600;
      };



object meter {
      name FDR_2126_LV_SP_5335217;
      phases AN;
      nominal_voltage  240;
      };


object load {
      name LOAD_8306582;
      parent FDR_2126_LV_SP_5335217;
      phases AN;
      nominal_voltage  240;
      base_power_A Load_2126.result;
      power_fraction_A 1;
      current_fraction_A 0;
      impedance_fraction_A 0;
      power_pf_A L_pf_Head80784.output;
      current_pf_A 1;
      impedance_pf_A 1;
      

      // Customer Trial Appended Data //
      ausgrid_sa1 11103123322;
      ausgrid_annual_consumption 10612.418507;
      ausgrid_annual_consumption_with_control_load 10612.418507;
      ausgrid_simple_cell 27;
      ausgrid_elec_band_residential 3;
      ausgrid_elec_band_business 0;
      ausgrid_unit 0;
      ausgrid_income_band 1;
      ausgrid_gas_band 1;
      ausgrid_climate_zone 5;
      ausgrid_controlled_load 0;
      ausgrid_generation 0;
      };



object overhead_line {
      name FDR_2126_LV_NODE_046-FDR_2126_LV_SP_5335215;
      phases CN;
      from FDR_2126_LV_NODE_046;
      to FDR_2126_LV_SP_5335215;
      length 29.8 m;
      configuration conf_OHLine_600;
      };



object meter {
      name FDR_2126_LV_SP_5335215;
      phases CN;
      nominal_voltage  240;
      };


object load {
      name LOAD_8306594;
      parent FDR_2126_LV_SP_5335215;
      phases CN;
      nominal_voltage  240;
      base_power_C Load_2126.result;
      power_fraction_C 1;
      current_fraction_C 0;
      impedance_fraction_C 0;
      power_pf_C L_pf_Head80784.output;
      current_pf_C 1;
      impedance_pf_C 1;
      

...